Program Version,EnergyPlus, Version 8.3.0-6d97d074ea, YMD=2020.01.15 06:28
! <Version>, Version ID
 Version, 8.3.0.001
! <Timesteps per Hour>, #TimeSteps, Minutes per TimeStep {minutes}
 Timesteps per Hour,  4, 15
! <System Convergence Limits>, Minimum System TimeStep {minutes}, Max HVAC Iterations, Minimum Plant Iterations, Maximum Plant Iterations
 System Convergence Limits, 1, 25, 2, 8
! <Simulation Control>, Do Zone Sizing, Do System Sizing, Do Plant Sizing, Do Design Days, Do Weather Simulation, Do HVAC Sizing Simulation
 Simulation Control, Yes, Yes, No, No, Yes, No
! <Output Reporting Tolerances>, Tolerance for Time Heating Setpoint Not Met, Tolerance for Zone Cooling Setpoint Not Met Time
 Output Reporting Tolerances, 1.110, 1.110, 
! <Site:GroundTemperature:BuildingSurface>, Months From Jan to Dec {C}
 Site:GroundTemperature:BuildingSurface,  17.87,  17.61,  17.63,  19.22,  19.59,  19.69,  21.29,  21.59,  21.59,  21.52,  19.88,  19.51
! <Site:GroundTemperature:FCfactorMethod>, Months From Jan to Dec {C}
 Site:GroundTemperature:FCfactorMethod,   4.02,   3.00,   4.81,   7.64,  15.05,  20.77,  24.63,  25.81,  23.81,  19.37,  13.43,   7.92
! <Site:GroundTemperature:Shallow>, Months From Jan to Dec {C}
 Site:GroundTemperature:Shallow,  14.00,  14.00,  14.00,  14.00,  14.00,  14.00,  14.00,  14.00,  14.00,  14.00,  14.00,  14.00
! <Site:GroundTemperature:Deep>, Months From Jan to Dec {C}
 Site:GroundTemperature:Deep,  14.00,  14.00,  14.00,  14.00,  14.00,  14.00,  14.00,  14.00,  14.00,  14.00,  14.00,  14.00
! <Site:GroundReflectance>, Months From Jan to Dec {dimensionless}
 Site:GroundReflectance,  0.20,  0.20,  0.20,  0.20,  0.20,  0.20,  0.20,  0.20,  0.20,  0.20,  0.20,  0.20
! <Site:GroundReflectance:SnowModifier>, Normal, Daylighting {dimensionless}
 Site:GroundReflectance:SnowModifier,   2.000,   2.000
! <Site:GroundReflectance:Snow>, Months From Jan to Dec {dimensionless}
 Site:GroundReflectance:Snow,  0.40,  0.40,  0.40,  0.40,  0.40,  0.40,  0.40,  0.40,  0.40,  0.40,  0.40,  0.40
! <Site:GroundReflectance:Snow:Daylighting>, Months From Jan to Dec {dimensionless}
 Site:GroundReflectance:Snow:Daylighting,  0.40,  0.40,  0.40,  0.40,  0.40,  0.40,  0.40,  0.40,  0.40,  0.40,  0.40,  0.40
! <Environment:Weather Station>,Wind Sensor Height Above Ground {m},Wind Speed Profile Exponent {},Wind Speed Profile Boundary Layer Thickness {m},Air Temperature Sensor Height Above Ground {m},Wind Speed Modifier Coefficient [Internal],Temperature Modifier Coefficient [Internal]
Environment:Weather Station,10.000,0.140,270.000,1.500,1.586,9.750E-003
! <Site:Location>, Location Name, Latitude {N+/S- Deg}, Longitude {E+/W- Deg},  Time Zone Number {GMT+/-}, Elevation {m},  Standard Pressure at Elevation {Pa}, Standard RhoAir at Elevation
Site:Location,Qazvin AP QZ IRN ISD-TMYx WMO#=407310,36.24,50.05,3.50,1275.30,86914,1.0330
! <Building Information>, Building Name,North Axis {deg},Terrain,  Loads Convergence Tolerance Value,Temperature Convergence Tolerance Value,  Solar Distribution,Maximum Number of Warmup Days,Minimum Number of Warmup Days
 Building Information,Building,0.000,Suburbs,4.00000E-002,0.40000,FullInteriorAndExterior,25,6
! <Inside Convection Algorithm>, Algorithm {Simple | TARP | CeilingDiffuser | AdaptiveConvectionAlgorithm}
Inside Convection Algorithm,TARP
! <Outside Convection Algorithm>, Algorithm {SimpleCombined | TARP | MoWitt | DOE-2 | AdaptiveConvectionAlgorithm}
Outside Convection Algorithm,DOE-2
! <Sky Radiance Distribution>, Value {Anisotropic}
Sky Radiance Distribution,Anisotropic
! <Zone Air Solution Algorithm>, Value {ThirdOrderBackwardDifference | AnalyticalSolution | EulerMethod}
 Zone Air Solution Algorithm, ThirdOrderBackwardDifference
! <Zone Air Contaminant Balance Simulation>, Simulation {Yes/No}, Carbon Dioxide Concentration
 Zone Air Carbon Dioxide Balance Simulation, No,N/A
! <Zone Air Contaminant Balance Simulation>, Simulation {Yes/No}, Generic Contaminant Concentration
 Zone Air Generic Contaminant Balance Simulation, Yes,YES
! <Zone Air Mass Flow Balance Simulation>, Simulation {Yes/No}
 Zone Air Mass Flow Balance Simulation, No
! <Environment:Site Atmospheric Variation>,Wind Speed Profile Exponent {},Wind Speed Profile Boundary Layer Thickness {m},Air Temperature Gradient Coefficient {K/m}
Environment:Site Atmospheric Variation,0.220,370.000,6.500000E-003
! <SurfaceGeometry>,Starting Corner,Vertex Input Direction,Coordinate System,Daylight Reference Point Coordinate System,Rectangular (Simple) Surface Coordinate System
 Surface Geometry,LowerLeftCorner,Counterclockwise,RelativeCoordinateSystem,RelativeCoordinateSystem,RelativeToZoneOrigin
! <Surface Heat Transfer Algorithm>, Value {CTF - ConductionTransferFunction | EMPD - MoisturePenetrationDepthConductionTransferFunction | CondFD - ConductionFiniteDifference | HAMT - CombinedHeatAndMoistureFiniteElement} - Description,Inside Surface Max Temperature Limit{C}, Surface Convection Coefficient Lower Limit {W/m2-K}, Surface Convection Coefficient Upper Limit {W/m2-K}
Surface Heat Transfer Algorithm, CTF - ConductionTransferFunction,2000,0.10,1000.0
! <Shading Summary>, Number of Fixed Detached Shades, Number of Building Detached Shades, Number of Attached Shades
 Shading Summary,0,12,0
! <Zone Summary>, Number of Zones, Number of Zone Surfaces, Number of SubSurfaces
 Zone Summary,16,194,49
! <Zone Information>,Zone Name,North Axis {deg},Origin X-Coordinate {m},Origin Y-Coordinate {m},Origin Z-Coordinate {m},Centroid X-Coordinate {m},Centroid Y-Coordinate {m},Centroid Z-Coordinate {m},Type,Zone Multiplier,Zone List Multiplier,Minimum X {m},Maximum X {m},Minimum Y {m},Maximum Y {m},Minimum Z {m},Maximum Z {m},Ceiling Height {m},Volume {m3},Zone Inside Convection Algorithm {Simple-Detailed-CeilingDiffuser-TrombeWall},Zone Outside Convection Algorithm {Simple-Detailed-Tarp-MoWitt-DOE-2-BLAST}, Floor Area {m2},Exterior Gross Wall Area {m2},Exterior Net Wall Area {m2},Exterior Window Area {m2}, Number of Surfaces, Number of SubSurfaces, Number of Shading SubSurfaces,  Part of Total Building Area
 Zone Information, 4767,0.0,0.00,0.00,0.00,-3.45,0.25,8.70,1,1,1,-5.13,-1.75,-1.50,2.07,5.80,11.60,5.78,69.44,TARP,DOE-2,12.01,49.34,47.94,2.02,14,3,0,Yes
 Zone Information, 4779,0.0,0.00,0.00,0.00,-3.08,-2.24,7.30,1,1,1,-3.73,-2.43,-2.98,-1.48,5.80,8.80,3.00,5.83,TARP,DOE-2,1.94,0.00,0.00,0.00,6,1,0,Yes
 Zone Information, 4786,0.0,0.00,0.00,0.00,-4.43,-2.24,7.30,1,1,1,-5.13,-3.73,-2.98,-1.50,5.80,8.80,3.00,6.25,TARP,DOE-2,2.08,4.47,4.47,0.00,6,0,0,Yes
 Zone Information, 4793,0.0,0.00,0.00,0.00,0.55,1.26,7.30,1,1,1,-2.43,2.87,-2.98,6.02,5.80,8.80,3.00,120.48,TARP,DOE-2,40.16,39.00,36.97,1.63,15,8,0,Yes
 Zone Information, 4805,0.0,0.00,0.00,0.00,-3.13,4.04,7.30,1,1,1,-5.13,-1.13,2.05,6.02,5.80,8.80,3.00,47.40,TARP,DOE-2,15.80,23.89,21.87,1.63,7,4,0,Yes
 Zone Information, 4813,0.0,0.00,0.00,0.00,0.87,-4.48,7.30,1,1,1,-1.13,2.87,-5.98,-2.98,5.80,8.80,3.00,36.00,TARP,DOE-2,12.00,21.00,18.97,1.63,6,4,0,Yes
 Zone Information, 4820,0.0,0.00,0.00,0.00,-3.13,-4.48,7.30,1,1,1,-5.13,-1.13,-5.98,-2.98,5.80,8.80,3.00,36.00,TARP,DOE-2,12.00,21.00,18.98,1.62,8,4,0,Yes
 Zone Information, 5618,0.0,0.00,0.00,0.00,-3.13,-4.48,4.30,1,1,1,-5.13,-1.13,-5.98,-2.98,2.80,5.80,3.00,36.00,TARP,DOE-2,12.00,21.00,18.98,1.62,8,4,0,Yes
 Zone Information, 5627,0.0,0.00,0.00,0.00,0.87,-4.48,4.30,1,1,1,-1.13,2.87,-5.98,-2.98,2.80,5.80,3.00,36.00,TARP,DOE-2,12.00,21.00,18.97,1.63,6,4,0,Yes
 Zone Information, 5634,0.0,0.00,0.00,0.00,-3.13,4.04,4.30,1,1,1,-5.13,-1.13,2.05,6.02,2.80,5.80,3.00,47.40,TARP,DOE-2,15.80,23.89,21.87,1.63,7,4,0,Yes
 Zone Information, 5642,0.0,0.00,0.00,0.00,0.55,1.26,4.30,1,1,1,-2.43,2.87,-2.98,6.02,2.80,5.80,3.00,120.48,TARP,DOE-2,40.16,39.00,36.97,1.63,15,7,0,Yes
 Zone Information, 5654,0.0,0.00,0.00,0.00,-4.43,-2.24,4.30,1,1,1,-5.13,-3.73,-2.98,-1.50,2.80,5.80,3.00,6.25,TARP,DOE-2,2.08,4.47,4.47,0.00,6,0,0,Yes
 Zone Information, 5661,0.0,0.00,0.00,0.00,-3.08,-2.24,4.30,1,1,1,-3.73,-2.43,-2.98,-1.48,2.80,5.80,3.00,5.83,TARP,DOE-2,1.94,0.00,0.00,0.00,6,1,0,Yes
 Zone Information, 5668,0.0,0.00,0.00,0.00,-3.46,0.16,4.30,1,1,1,-5.13,-1.75,-1.50,2.07,2.80,5.80,3.00,36.04,TARP,DOE-2,12.01,10.65,10.65,0.00,8,0,0,Yes
 Zone Information, 6114,0.0,0.00,0.00,0.00,-3.46,0.15,1.40,1,1,1,-5.13,-1.75,-1.50,2.07,1.00E-008,2.80,2.80,33.63,TARP,DOE-2,12.01,9.94,9.94,0.00,7,1,0,Yes
 Zone Information, 6122,0.0,0.00,0.00,0.00,-0.98,1.16E-002,1.40,1,1,1,-5.13,2.87,-5.98,6.02,1.00E-008,2.80,2.80,235.17,TARP,DOE-2,83.99,102.06,77.21,18.18,20,4,0,Yes
! <Zone Internal Gains/Equipment Information - Nominal>,Zone Name, Floor Area {m2},# Occupants,Area per Occupant {m2/person},Occupant per Area {person/m2},Interior Lighting {W/m2},Electric Load {W/m2},Gas Load {W/m2},Other Load {W/m2},Hot Water Eq {W/m2},Steam Equipment {W/m2},Sum Loads per Area {W/m2},Outdoor Controlled Baseboard Heat
 Zone Internal Gains, 4767,12.01,0.0,N/A,0.000,0.000,0.000,0.000,0.000,0.000,0.000,0.000,No
 Zone Internal Gains, 4779,1.94,0.0,N/A,0.000,30.927,0.000,0.000,0.000,0.000,0.000,30.927,No
 Zone Internal Gains, 4786,2.08,0.0,N/A,0.000,28.846,0.000,0.000,0.000,0.000,0.000,28.846,No
 Zone Internal Gains, 4793,40.16,8.0,5.025,0.199,3.586,29.502,0.000,0.000,0.000,0.000,33.088,No
 Zone Internal Gains, 4805,15.80,4.0,3.950,0.253,3.797,28.470,88.600,0.000,0.000,0.000,120.867,No
 Zone Internal Gains, 4813,12.00,4.0,3.003,0.333,3.333,80.000,0.000,0.000,0.000,0.000,83.333,No
 Zone Internal Gains, 4820,12.00,4.0,3.003,0.333,4.583,271.667,0.000,0.000,0.000,0.000,276.250,No
 Zone Internal Gains, 5618,12.00,4.0,3.003,0.333,4.583,271.667,0.000,0.000,0.000,0.000,276.250,No
 Zone Internal Gains, 5627,12.00,4.0,3.003,0.333,3.333,80.000,0.000,0.000,0.000,0.000,83.333,No
 Zone Internal Gains, 5634,15.80,4.0,3.950,0.253,3.797,28.470,88.600,0.000,0.000,0.000,120.867,No
 Zone Internal Gains, 5642,40.16,8.0,5.025,0.199,3.586,29.502,0.000,0.000,0.000,0.000,33.088,No
 Zone Internal Gains, 5654,2.08,0.0,N/A,0.000,28.846,0.000,0.000,0.000,0.000,0.000,28.846,No
 Zone Internal Gains, 5661,1.94,0.0,N/A,0.000,30.927,0.000,0.000,0.000,0.000,0.000,30.927,No
 Zone Internal Gains, 5668,12.01,0.0,N/A,0.000,0.000,0.000,0.000,0.000,0.000,0.000,0.000,No
 Zone Internal Gains, 6114,12.01,5.8,2.080,0.481,28.846,0.000,0.000,0.000,0.000,0.000,28.846,No
 Zone Internal Gains, 6122,83.99,40.4,2.080,0.481,28.846,0.000,0.000,0.000,0.000,0.000,28.846,No
! <People Internal Gains - Nominal>,Name,Schedule Name,Zone Name,Zone Floor Area {m2},# Zone Occupants,Number of People {},People/Floor Area {person/m2},Floor Area per person {m2/person},Fraction Radiant,Fraction Convected,Sensible Fraction Calculation,Activity level,ASHRAE 55 Warnings,Carbon Dioxide Generation Rate,Nominal Minimum Number of People,Nominal Maximum Number of People
 People Internal Gains, PEOPLE 4767,OFF 24/7,4767,12.01,0.0,0.0,0.000,N/A,0.300,0.700,AutoCalculate,ACTIVITY SCHEDULE 4767,No,3.8200E-008,0,0
 People Internal Gains, PEOPLE 4779,OFF 24/7,4779,1.94,0.0,0.0,0.000,N/A,0.300,0.700,AutoCalculate,ACTIVITY SCHEDULE 4779,No,3.8200E-008,0,0
 People Internal Gains, PEOPLE 4786,OFF 24/7,4786,2.08,0.0,0.0,0.000,N/A,0.300,0.700,AutoCalculate,ACTIVITY SCHEDULE 4786,No,3.8200E-008,0,0
 People Internal Gains, PEOPLE 4793,LIVINGROOM,4793,40.16,8.0,8.0,0.199,5.025,0.300,0.700,AutoCalculate,ACTIVITY SCHEDULE 4793,No,3.8200E-008,0,7
 People Internal Gains, PEOPLE 4805,KITCHEN,4805,15.80,4.0,4.0,0.253,3.950,0.300,0.700,AutoCalculate,ACTIVITY SCHEDULE 4805,No,3.8200E-008,0,2
 People Internal Gains, PEOPLE 4813,BEDROOM,4813,12.00,4.0,4.0,0.333,3.003,0.300,0.700,AutoCalculate,ACTIVITY SCHEDULE 4813,No,3.8200E-008,0,4
 People Internal Gains, PEOPLE 4820,BEDROOM,4820,12.00,4.0,4.0,0.333,3.003,0.300,0.700,AutoCalculate,ACTIVITY SCHEDULE 4820,No,3.8200E-008,0,4
 People Internal Gains, PEOPLE 5618,BEDROOM,5618,12.00,4.0,4.0,0.333,3.003,0.300,0.700,AutoCalculate,ACTIVITY SCHEDULE 5618,No,3.8200E-008,0,4
 People Internal Gains, PEOPLE 5627,BEDROOM,5627,12.00,4.0,4.0,0.333,3.003,0.300,0.700,AutoCalculate,ACTIVITY SCHEDULE 5627,No,3.8200E-008,0,4
 People Internal Gains, PEOPLE 5634,KITCHEN,5634,15.80,4.0,4.0,0.253,3.950,0.300,0.700,AutoCalculate,ACTIVITY SCHEDULE 5634,No,3.8200E-008,0,2
 People Internal Gains, PEOPLE 5642,LIVINGROOM,5642,40.16,8.0,8.0,0.199,5.025,0.300,0.700,AutoCalculate,ACTIVITY SCHEDULE 5642,No,3.8200E-008,0,7
 People Internal Gains, PEOPLE 5654,OFF 24/7,5654,2.08,0.0,0.0,0.000,N/A,0.300,0.700,AutoCalculate,ACTIVITY SCHEDULE 5654,No,3.8200E-008,0,0
 People Internal Gains, PEOPLE 5661,OFF 24/7,5661,1.94,0.0,0.0,0.000,N/A,0.300,0.700,AutoCalculate,ACTIVITY SCHEDULE 5661,No,3.8200E-008,0,0
 People Internal Gains, PEOPLE 5668,OFF 24/7,5668,12.01,0.0,0.0,0.000,N/A,0.300,0.700,AutoCalculate,ACTIVITY SCHEDULE 5668,No,3.8200E-008,0,0
 People Internal Gains, PEOPLE 6114,BATHROOM,6114,12.01,5.8,5.8,0.481,2.080,0.300,0.700,AutoCalculate,ACTIVITY SCHEDULE 6114,No,3.8200E-008,0,6
 People Internal Gains, PEOPLE 6122,BATHROOM,6122,83.99,40.4,40.4,0.481,2.080,0.300,0.700,AutoCalculate,ACTIVITY SCHEDULE 6122,No,3.8200E-008,0,40
! <Lights Internal Gains - Nominal>,Name,Schedule Name,Zone Name,Zone Floor Area {m2},# Zone Occupants,Lighting Level {W},Lights/Floor Area {W/m2},Lights per person {W/person},Fraction Return Air,Fraction Radiant,Fraction Short Wave,Fraction Convected,Fraction Replaceable,End-Use Category,Nominal Minimum Lighting Level {W},Nominal Maximum Lighting Level {W}
 Lights Internal Gains, 4779 GENERAL LIGHTING,LIGHTING- TOILET,4779,1.94,0.0,60.073,30.927,N/A,0.000,0.720,0.180,0.100,1.000,ELECTRIC EQUIPMENT#4779#GeneralLights,0.000,60.073
 Lights Internal Gains, 4786 GENERAL LIGHTING,COPY OF BATHROOM,4786,2.08,0.0,60.107,28.846,N/A,0.000,0.720,0.180,0.100,1.000,ELECTRIC EQUIPMENT#4786#GeneralLights,0.000,60.107
 Lights Internal Gains, 4793 GENERAL LIGHTING,LIGHTING-KITCHEN,4793,40.16,8.0,144.000,3.586,18.018,0.000,0.370,0.180,0.450,1.000,ELECTRIC EQUIPMENT#4793#GeneralLights,0.000,144.000
 Lights Internal Gains, 4805 GENERAL LIGHTING,LIGHTING-KITCHEN1,4805,15.80,4.0,59.998,3.797,15.000,0.000,0.420,0.180,0.400,1.000,ELECTRIC EQUIPMENT#4805#GeneralLights,0.000,59.998
 Lights Internal Gains, 4813 GENERAL LIGHTING,LIGHTING-BEDROOM,4813,12.00,4.0,40.000,3.333,10.010,0.000,0.420,0.180,0.400,1.000,ELECTRIC EQUIPMENT#4813#GeneralLights,0.000,40.000
 Lights Internal Gains, 4820 GENERAL LIGHTING,LIGHTING-BEDROOM,4820,12.00,4.0,55.000,4.583,13.764,0.000,0.420,0.180,0.400,1.000,ELECTRIC EQUIPMENT#4820#GeneralLights,0.000,55.000
 Lights Internal Gains, 5618 GENERAL LIGHTING,LIGHTING-BEDROOM,5618,12.00,4.0,55.000,4.583,13.764,0.000,0.420,0.180,0.400,1.000,ELECTRIC EQUIPMENT#5618#GeneralLights,0.000,55.000
 Lights Internal Gains, 5627 GENERAL LIGHTING,LIGHTING-BEDROOM,5627,12.00,4.0,40.000,3.333,10.010,0.000,0.420,0.180,0.400,1.000,ELECTRIC EQUIPMENT#5627#GeneralLights,0.000,40.000
 Lights Internal Gains, 5634 GENERAL LIGHTING,LIGHTING-KITCHEN1,5634,15.80,4.0,59.998,3.797,15.000,0.000,0.420,0.180,0.400,1.000,ELECTRIC EQUIPMENT#5634#GeneralLights,0.000,59.998
 Lights Internal Gains, 5642 GENERAL LIGHTING,LIGHTING-KITCHEN,5642,40.16,8.0,144.000,3.586,18.018,0.000,0.370,0.180,0.450,1.000,ELECTRIC EQUIPMENT#5642#GeneralLights,0.000,144.000
 Lights Internal Gains, 5654 GENERAL LIGHTING,COPY OF BATHROOM,5654,2.08,0.0,60.107,28.846,N/A,0.000,0.720,0.180,0.100,1.000,ELECTRIC EQUIPMENT#5654#GeneralLights,0.000,60.107
 Lights Internal Gains, 5661 GENERAL LIGHTING,LIGHTING- TOILET,5661,1.94,0.0,60.073,30.927,N/A,0.000,0.720,0.180,0.100,1.000,ELECTRIC EQUIPMENT#5661#GeneralLights,0.000,60.073
 Lights Internal Gains, 6114 GENERAL LIGHTING,COPY OF BATHROOM,6114,12.01,5.8,346.501,28.846,60.009,0.000,0.720,0.180,0.100,1.000,ELECTRIC EQUIPMENT#6114#GeneralLights,0.000,346.501
 Lights Internal Gains, 6122 GENERAL LIGHTING,COPY OF BATHROOM,6122,83.99,40.4,2422.735,28.846,60.009,0.000,0.720,0.180,0.100,1.000,ELECTRIC EQUIPMENT#6122#GeneralLights,0.000,2422.735
! <ElectricEquipment Internal Gains - Nominal>,Name,Schedule Name,Zone Name,Zone Floor Area {m2},# Zone Occupants,Equipment Level {W},Equipment/Floor Area {W/m2},Equipment per person {W/person},Fraction Latent,Fraction Radiant,Fraction Lost,Fraction Convected,End-Use SubCategory,Nominal Minimum Equipment Level {W},Nominal Maximum Equipment Level {W}
 ElectricEquipment Internal Gains, 4793 COMPUTING GAIN 1,JAROO,4793,40.16,8.0,959.838,23.900,120.100,0.000,0.200,0.000,0.800,ELECTRIC EQUIPMENT#4793#05,0.000,0.000
 ElectricEquipment Internal Gains, 4793 EQUIPMENT 2,TELEVISION,4793,40.16,8.0,224.980,5.602,28.151,0.000,0.200,0.000,0.800,ELECTRIC EQUIPMENT#4793#05,0.000,224.980
 ElectricEquipment Internal Gains, 4805 COMPUTING GAIN 1,YAKHCHAL,4805,15.80,4.0,159.894,10.120,39.975,0.000,0.200,0.000,0.800,ELECTRIC EQUIPMENT#4805#05,0.000,159.894
 ElectricEquipment Internal Gains, 4805 EQUIPMENT 3,WASHINGMECHIN,4805,15.80,4.0,289.926,18.350,72.484,0.000,0.200,0.000,0.800,ELECTRIC EQUIPMENT#4805#05,0.000,289.926
 ElectricEquipment Internal Gains, 4813 COMPUTING GAIN 1,JAROO,4813,12.00,4.0,960.000,80.000,240.240,0.000,0.200,0.000,0.800,ELECTRIC EQUIPMENT#4813#05,0.000,0.000
 ElectricEquipment Internal Gains, 4820 COMPUTING GAIN 1,JAROO,4820,12.00,4.0,960.000,80.000,240.240,0.000,0.200,0.000,0.800,ELECTRIC EQUIPMENT#4820#05,0.000,0.000
 ElectricEquipment Internal Gains, 4820 EQUIPMENT 2,OTU/SESHOAR,4820,12.00,4.0,2300.000,191.667,575.576,0.000,0.200,0.000,0.800,ELECTRIC EQUIPMENT#4820#05,0.000,2300.000
 ElectricEquipment Internal Gains, 5618 COMPUTING GAIN 1,JAROO,5618,12.00,4.0,960.000,80.000,240.240,0.000,0.200,0.000,0.800,ELECTRIC EQUIPMENT#5618#05,0.000,0.000
 ElectricEquipment Internal Gains, 5618 EQUIPMENT 2,OTU/SESHOAR,5618,12.00,4.0,2300.000,191.667,575.576,0.000,0.200,0.000,0.800,ELECTRIC EQUIPMENT#5618#05,0.000,2300.000
 ElectricEquipment Internal Gains, 5627 COMPUTING GAIN 1,JAROO,5627,12.00,4.0,960.000,80.000,240.240,0.000,0.200,0.000,0.800,ELECTRIC EQUIPMENT#5627#05,0.000,0.000
 ElectricEquipment Internal Gains, 5634 COMPUTING GAIN 1,YAKHCHAL,5634,15.80,4.0,159.894,10.120,39.975,0.000,0.200,0.000,0.800,ELECTRIC EQUIPMENT#5634#05,0.000,159.894
 ElectricEquipment Internal Gains, 5634 EQUIPMENT 3,WASHINGMECHIN,5634,15.80,4.0,289.926,18.350,72.484,0.000,0.200,0.000,0.800,ELECTRIC EQUIPMENT#5634#05,0.000,289.926
 ElectricEquipment Internal Gains, 5642 COMPUTING GAIN 1,JAROO,5642,40.16,8.0,959.838,23.900,120.100,0.000,0.200,0.000,0.800,ELECTRIC EQUIPMENT#5642#05,0.000,0.000
 ElectricEquipment Internal Gains, 5642 EQUIPMENT 2,TELEVISION,5642,40.16,8.0,224.980,5.602,28.151,0.000,0.200,0.000,0.800,ELECTRIC EQUIPMENT#5642#05,0.000,224.980
! <GasEquipment Internal Gains - Nominal>,Name,Schedule Name,Zone Name,Zone Floor Area {m2},# Zone Occupants,Equipment Level {W},Equipment/Floor Area {W/m2},Equipment per person {W/person},Fraction Latent,Fraction Radiant,Fraction Lost,Fraction Convected,End-Use SubCategory,Nominal Minimum Equipment Level {W},Nominal Maximum Equipment Level {W}
 GasEquipment Internal Gains, 4805 MISCELLANEOUS GAIN 2,OVEN,4805,15.80,4.0,1399.862,88.600,349.976,0.000,0.200,0.000,0.800,GAS EQUIPMENT#4805#04,0.000,1399.862
 GasEquipment Internal Gains, 5634 MISCELLANEOUS GAIN 2,OVEN,5634,15.80,4.0,1399.862,88.600,349.976,0.000,0.200,0.000,0.800,GAS EQUIPMENT#5634#04,0.000,1399.862
! <Construction CTF>,Construction Name,Index,#Layers,#CTFs,Time Step {hours},ThermalConductance {w/m2-K},OuterThermalAbsorptance,InnerThermalAbsorptance,OuterSolarAbsorptance,InnerSolarAbsorptance,Roughness
! <Material CTF Summary>,Material Name,Thickness {m},Conductivity {w/m-K},Density {kg/m3},Specific Heat {J/kg-K},ThermalResistance {m2-K/w}
! <Material:Air>,Material Name,ThermalResistance {m2-K/w}
! <CTF>,Time,Outside,Cross,Inside,Flux (except final one)
 Construction CTF,LINEARBRIDGINGCONSTRUCTION,   1,   1,   1,   0.250,      1.596    ,   0.010,   0.010,   0.010,   0.010,Rough
 Material CTF Summary,LINEARBRIDGINGLAYER,  0.0000,         0.000,      0.000,        0.000,  0.6267    
 CTF,   1,       0.0000000    ,       0.0000000    ,      -0.0000000    ,      -0.0000000    
 CTF,   0,       1.5956598    ,       1.5956598    ,       1.5956598    
 Construction CTF,IRTSURFACE,   2,   1,   1,   0.250,      100.0    ,   1.000,   1.000,   1.000,   1.000,
 Material CTF Summary,IRTMATERIAL,  0.0000,         0.000,      0.000,        0.000,  0.1000E-01
 CTF,   1,       0.0000000    ,       0.0000000    ,      -0.0000000    ,      -0.0000000    
 CTF,   0,       100.00000    ,       100.00000    ,       100.00000    
 Construction CTF,1,   3,   6,   9,   0.250,      3.299    ,   0.900,   0.900,   0.700,   0.500,Rough
 Material CTF Summary,1_1_10003,  0.0040,         0.230,   1100.000,     1000.000,  0.1739E-01
 Material CTF Summary,1_2_5134,  0.0250,         0.720,   1860.000,      840.000,  0.3472E-01
 Material CTF Summary,1_RVAL_3,  0.0000,         0.000,      0.000,        0.000,  0.5384E-01
 Material CTF Summary,1_4_5128,  0.1100,         0.850,   1500.000,      840.000,  0.1294    
 Material CTF Summary,1_RVAL_5,  0.0000,         0.000,      0.000,        0.000,  0.4280E-01
 Material CTF Summary,1_6_66,  0.0100,         0.400,   1000.000,     1000.000,  0.2500E-01
 CTF,   9,     -0.22470508E-11,     -0.58096069E-13,     -0.40633977E-11,      0.46220282E-15
 CTF,   8,      0.58038981E-08,      0.77748025E-11,      0.10962793E-07,     -0.63706903E-12
 CTF,   7,     -0.52744937E-05,      0.22067927E-07,     -0.98467692E-05,      0.16166615E-08
 CTF,   6,      0.14386151E-02,      0.96787149E-05,      0.26475967E-02,     -0.13713286E-05
 CTF,   5,     -0.98108814E-01,      0.78978734E-03,     -0.15964508    ,      0.34652851E-03
 CTF,   4,       2.1557232    ,      0.13337198E-01,       2.4734599    ,     -0.19057880E-01
 CTF,   3,      -17.413315    ,      0.50645099E-01,      -14.672874    ,      0.24451345    
 CTF,   2,       53.017932    ,      0.41816222E-01,       39.048813    ,      -1.0740744    
 CTF,   1,      -65.407371    ,      0.54270095E-02,      -46.372199    ,       1.8143048    
 CTF,   0,       27.855754    ,      0.22600515E-04,       19.791855    
 Construction CTF,2,   4,   6,   9,   0.250,      3.299    ,   0.900,   0.900,   0.500,   0.700,Rough
 Material CTF Summary,1_6_66,  0.0100,         0.400,   1000.000,     1000.000,  0.2500E-01
 Material CTF Summary,2_RVAL_2,  0.0000,         0.000,      0.000,        0.000,  0.4280E-01
 Material CTF Summary,1_4_5128,  0.1100,         0.850,   1500.000,      840.000,  0.1294    
 Material CTF Summary,2_RVAL_4,  0.0000,         0.000,      0.000,        0.000,  0.5384E-01
 Material CTF Summary,1_2_5134,  0.0250,         0.720,   1860.000,      840.000,  0.3472E-01
 Material CTF Summary,1_1_10003,  0.0040,         0.230,   1100.000,     1000.000,  0.1739E-01
 CTF,   9,     -0.40633854E-11,     -0.58097905E-13,     -0.22470477E-11,      0.46233989E-15
 CTF,   8,      0.10962793E-07,      0.77747916E-11,      0.58038981E-08,     -0.63706881E-12
 CTF,   7,     -0.98467692E-05,      0.22067927E-07,     -0.52744937E-05,      0.16166615E-08
 CTF,   6,      0.26475967E-02,      0.96787149E-05,      0.14386151E-02,     -0.13713286E-05
 CTF,   5,     -0.15964508    ,      0.78978734E-03,     -0.98108814E-01,      0.34652851E-03
 CTF,   4,       2.4734599    ,      0.13337198E-01,       2.1557232    ,     -0.19057880E-01
 CTF,   3,      -14.672874    ,      0.50645099E-01,      -17.413315    ,      0.24451345    
 CTF,   2,       39.048813    ,      0.41816222E-01,       53.017932    ,      -1.0740744    
 CTF,   1,      -46.372199    ,      0.54270095E-02,      -65.407371    ,       1.8143048    
 CTF,   0,       19.791855    ,      0.22600515E-04,       27.855754    
 Construction CTF,3,   5,   4,   9,   0.250,      3.676    ,   0.900,   0.900,   0.600,   0.500,Rough
 Material CTF Summary,3_1_5134,  0.0200,         0.720,   1860.000,      840.000,  0.2778E-01
 Material CTF Summary,3_2_5128,  0.1500,         0.850,   1500.000,      840.000,  0.1765    
 Material CTF Summary,3_RVAL_3,  0.0000,         0.000,      0.000,        0.000,  0.4280E-01
 Material CTF Summary,1_6_66,  0.0100,         0.400,   1000.000,     1000.000,  0.2500E-01
 CTF,   9,     -0.11316735E-10,     -0.37601847E-13,     -0.94312325E-11,      0.20725572E-15
 CTF,   8,      0.34849742E-05,      0.14940549E-11,      0.32331455E-05,     -0.22669578E-11
 CTF,   7,     -0.52859153E-03,      0.29009617E-07,     -0.43836487E-03,      0.46862453E-06
 CTF,   6,      0.28986406E-01,      0.14418823E-04,      0.20768480E-01,     -0.58143612E-04
 CTF,   5,     -0.70518942    ,      0.94079653E-03,     -0.43243696    ,      0.25090511E-02
 CTF,   4,       7.8422403    ,      0.13075504E-01,       4.2170002    ,     -0.46307496E-01
 CTF,   3,      -40.101623    ,      0.44734221E-01,      -19.917238    ,      0.37612398    
 CTF,   2,       95.521897    ,      0.36213704E-01,       46.171579    ,      -1.3297882    
 CTF,   1,      -102.67365    ,      0.50914190E-02,      -49.926683    ,       1.9702878    
 CTF,   0,       40.187965    ,      0.31978099E-04,       19.967547    
 Construction CTF,4,   6,   4,   9,   0.250,      3.676    ,   0.900,   0.900,   0.500,   0.600,Rough
 Material CTF Summary,1_6_66,  0.0100,         0.400,   1000.000,     1000.000,  0.2500E-01
 Material CTF Summary,4_RVAL_2,  0.0000,         0.000,      0.000,        0.000,  0.4280E-01
 Material CTF Summary,3_2_5128,  0.1500,         0.850,   1500.000,      840.000,  0.1765    
 Material CTF Summary,3_1_5134,  0.0200,         0.720,   1860.000,      840.000,  0.2778E-01
 CTF,   9,     -0.94312144E-11,     -0.37612556E-13,     -0.11316758E-10,      0.20634994E-15
 CTF,   8,      0.32331455E-05,      0.14940352E-11,      0.34849742E-05,     -0.22669593E-11
 CTF,   7,     -0.43836487E-03,      0.29009617E-07,     -0.52859153E-03,      0.46862453E-06
 CTF,   6,      0.20768480E-01,      0.14418823E-04,      0.28986406E-01,     -0.58143612E-04
 CTF,   5,     -0.43243696    ,      0.94079653E-03,     -0.70518942    ,      0.25090511E-02
 CTF,   4,       4.2170002    ,      0.13075504E-01,       7.8422403    ,     -0.46307496E-01
 CTF,   3,      -19.917238    ,      0.44734221E-01,      -40.101623    ,      0.37612398    
 CTF,   2,       46.171579    ,      0.36213704E-01,       95.521897    ,      -1.3297882    
 CTF,   1,      -49.926683    ,      0.50914190E-02,      -102.67365    ,       1.9702878    
 CTF,   0,       19.967547    ,      0.31978099E-04,       40.187965    
 Construction CTF,5,   7,   5,   9,   0.250,      3.204    ,   0.900,   0.900,   0.500,   0.500,Rough
 Material CTF Summary,1_6_66,  0.0100,         0.400,   1000.000,     1000.000,  0.2500E-01
 Material CTF Summary,5_RVAL_2,  0.0000,         0.000,      0.000,        0.000,  0.4280E-01
 Material CTF Summary,3_2_5128,  0.1500,         0.850,   1500.000,      840.000,  0.1765    
 Material CTF Summary,5_RVAL_4,  0.0000,         0.000,      0.000,        0.000,  0.4280E-01
 Material CTF Summary,1_6_66,  0.0100,         0.400,   1000.000,     1000.000,  0.2500E-01
 CTF,   9,     -0.64563875E-11,     -0.34585053E-13,     -0.64563830E-11,      0.40413451E-15
 CTF,   8,      0.19687647E-05,      0.22983431E-12,      0.19687647E-05,     -0.14847864E-11
 CTF,   7,     -0.30765069E-03,      0.10730315E-07,     -0.30765069E-03,      0.28537106E-06
 CTF,   6,      0.16971995E-01,      0.63742834E-05,      0.16971995E-01,     -0.41306974E-04
 CTF,   5,     -0.40144326    ,      0.47927172E-03,     -0.40144326    ,      0.20868394E-02
 CTF,   4,       4.2246142    ,      0.74587197E-02,       4.2246142    ,     -0.43900212E-01
 CTF,   3,      -20.549139    ,      0.27924199E-01,      -20.549139    ,      0.38382982    
 CTF,   2,       47.697618    ,      0.24437542E-01,       47.697618    ,      -1.3805924    
 CTF,   1,      -50.891790    ,      0.37396034E-02,      -50.891790    ,       2.0186215    
 CTF,   0,       19.967547    ,      0.27776247E-04,       19.967547    
 Construction CTF,6,   8,   5,   9,   0.250,      3.204    ,   0.900,   0.900,   0.500,   0.500,Rough
 Material CTF Summary,1_6_66,  0.0100,         0.400,   1000.000,     1000.000,  0.2500E-01
 Material CTF Summary,6_RVAL_2,  0.0000,         0.000,      0.000,        0.000,  0.4280E-01
 Material CTF Summary,3_2_5128,  0.1500,         0.850,   1500.000,      840.000,  0.1765    
 Material CTF Summary,6_RVAL_4,  0.0000,         0.000,      0.000,        0.000,  0.4280E-01
 Material CTF Summary,1_6_66,  0.0100,         0.400,   1000.000,     1000.000,  0.2500E-01
 CTF,   9,     -0.64563875E-11,     -0.34585053E-13,     -0.64563830E-11,      0.40413451E-15
 CTF,   8,      0.19687647E-05,      0.22983431E-12,      0.19687647E-05,     -0.14847864E-11
 CTF,   7,     -0.30765069E-03,      0.10730315E-07,     -0.30765069E-03,      0.28537106E-06
 CTF,   6,      0.16971995E-01,      0.63742834E-05,      0.16971995E-01,     -0.41306974E-04
 CTF,   5,     -0.40144326    ,      0.47927172E-03,     -0.40144326    ,      0.20868394E-02
 CTF,   4,       4.2246142    ,      0.74587197E-02,       4.2246142    ,     -0.43900212E-01
 CTF,   3,      -20.549139    ,      0.27924199E-01,      -20.549139    ,      0.38382982    
 CTF,   2,       47.697618    ,      0.24437542E-01,       47.697618    ,      -1.3805924    
 CTF,   1,      -50.891790    ,      0.37396034E-02,      -50.891790    ,       2.0186215    
 CTF,   0,       19.967547    ,      0.27776247E-04,       19.967547    
 Construction CTF,7,   9,   1,   5,   0.250,      5.429    ,   0.900,   0.900,   0.500,   0.500,Rough
 Material CTF Summary,7_1_108,  0.0350,         0.190,    700.000,     2390.000,  0.1842    
 CTF,   5,     -0.69746978E-08,      0.29253874E-08,     -0.69746978E-08,      0.49448836E-11
 CTF,   4,      0.13011253E-03,      0.55672036E-04,      0.13011253E-03,     -0.23619261E-06
 CTF,   3,     -0.88188145E-01,      0.26293651E-01,     -0.88188145E-01,      0.50101879E-03
 CTF,   2,       3.7060969    ,      0.68563325    ,       3.7060969    ,     -0.51493902E-01
 CTF,   1,      -19.348738    ,       1.5755462    ,      -19.348738    ,      0.58292536    
 CTF,   0,       18.271638    ,      0.25341045    ,       18.271638    
 Construction CTF,8,  10,   1,   5,   0.250,      5.429    ,   0.900,   0.900,   0.500,   0.500,Rough
 Material CTF Summary,7_1_108,  0.0350,         0.190,    700.000,     2390.000,  0.1842    
 CTF,   5,     -0.69746978E-08,      0.29253874E-08,     -0.69746978E-08,      0.49448836E-11
 CTF,   4,      0.13011253E-03,      0.55672036E-04,      0.13011253E-03,     -0.23619261E-06
 CTF,   3,     -0.88188145E-01,      0.26293651E-01,     -0.88188145E-01,      0.50101879E-03
 CTF,   2,       3.7060969    ,      0.68563325    ,       3.7060969    ,     -0.51493902E-01
 CTF,   1,      -19.348738    ,       1.5755462    ,      -19.348738    ,      0.58292536    
 CTF,   0,       18.271638    ,      0.25341045    ,       18.271638    
 Construction CTF,9,  11,   1,   3,   0.250,      360.0    ,   0.900,   0.900,   0.600,   0.600,Rough
 Material CTF Summary,9_1_10008,  0.2000,        72.000,   7900.000,      530.000,  0.2778E-02
 CTF,   3,     -0.10416585E-04,      0.75451843E-05,     -0.10416585E-04,      0.39099092E-15
 CTF,   2,       2.4582369    ,       1.4467613    ,       2.4582369    ,     -0.57953038E-06
 CTF,   1,      -300.00672    ,       152.16991    ,      -300.00672    ,      0.32390456E-01
 CTF,   0,       645.88813    ,       194.72296    ,       645.88813    
 Construction CTF,10,  12,   1,   3,   0.250,      360.0    ,   0.900,   0.900,   0.600,   0.600,Rough
 Material CTF Summary,9_1_10008,  0.2000,        72.000,   7900.000,      530.000,  0.2778E-02
 CTF,   3,     -0.10416585E-04,      0.75451843E-05,     -0.10416585E-04,      0.39099092E-15
 CTF,   2,       2.4582369    ,       1.4467613    ,       2.4582369    ,     -0.57953038E-06
 CTF,   1,      -300.00672    ,       152.16991    ,      -300.00672    ,      0.32390456E-01
 CTF,   0,       645.88813    ,       194.72296    ,       645.88813    
 Construction CTF,11,  13,   5,   9,   0.250,      3.366    ,   0.900,   0.900,   0.600,   0.500,Rough
 Material CTF Summary,11_1_5169,  0.0200,         0.800,   1700.000,      850.000,  0.2500E-01
 Material CTF Summary,3_1_5134,  0.0200,         0.720,   1860.000,      840.000,  0.2778E-01
 Material CTF Summary,3_2_5128,  0.1500,         0.850,   1500.000,      840.000,  0.1765    
 Material CTF Summary,11_RVAL_4,  0.0000,         0.000,      0.000,        0.000,  0.4280E-01
 Material CTF Summary,1_6_66,  0.0100,         0.400,   1000.000,     1000.000,  0.2500E-01
 CTF,   9,     -0.81830033E-07,      0.20076962E-12,     -0.86284989E-07,      0.71039766E-13
 CTF,   8,      0.31869022E-04,      0.59500609E-09,      0.22645134E-04,     -0.12509566E-07
 CTF,   7,     -0.29747913E-02,      0.51926929E-06,     -0.18819022E-02,      0.31383121E-05
 CTF,   6,      0.11004774    ,      0.63579094E-04,      0.64962581E-01,     -0.24112768E-03
 CTF,   5,      -1.8477286    ,      0.17266078E-02,      -1.0196245    ,      0.75433648E-02
 CTF,   4,       14.914958    ,      0.12393532E-01,       7.7153793    ,     -0.10311913    
 CTF,   3,      -59.659279    ,      0.24368911E-01,      -29.553782    ,      0.63366436    
 CTF,   2,       118.95248    ,      0.11792861E-01,       58.027639    ,      -1.7849119    
 CTF,   1,      -112.44739    ,      0.93834678E-03,      -55.148976    ,       2.2318268    
 CTF,   0,       40.031142    ,      0.21047233E-05,       19.967547    
 Construction CTF,12,  14,   5,   9,   0.250,      3.366    ,   0.900,   0.900,   0.500,   0.600,Rough
 Material CTF Summary,1_6_66,  0.0100,         0.400,   1000.000,     1000.000,  0.2500E-01
 Material CTF Summary,12_RVAL_2,  0.0000,         0.000,      0.000,        0.000,  0.4280E-01
 Material CTF Summary,3_2_5128,  0.1500,         0.850,   1500.000,      840.000,  0.1765    
 Material CTF Summary,3_1_5134,  0.0200,         0.720,   1860.000,      840.000,  0.2778E-01
 Material CTF Summary,11_1_5169,  0.0200,         0.800,   1700.000,      850.000,  0.2500E-01
 CTF,   9,     -0.86284989E-07,      0.20074475E-12,     -0.81830033E-07,      0.71036785E-13
 CTF,   8,      0.22645134E-04,      0.59500605E-09,      0.31869022E-04,     -0.12509566E-07
 CTF,   7,     -0.18819022E-02,      0.51926929E-06,     -0.29747913E-02,      0.31383121E-05
 CTF,   6,      0.64962581E-01,      0.63579094E-04,      0.11004774    ,     -0.24112768E-03
 CTF,   5,      -1.0196245    ,      0.17266078E-02,      -1.8477286    ,      0.75433648E-02
 CTF,   4,       7.7153793    ,      0.12393532E-01,       14.914958    ,     -0.10311913    
 CTF,   3,      -29.553782    ,      0.24368911E-01,      -59.659279    ,      0.63366436    
 CTF,   2,       58.027639    ,      0.11792861E-01,       118.95248    ,      -1.7849119    
 CTF,   1,      -55.148976    ,      0.93834677E-03,      -112.44739    ,       2.2318268    
 CTF,   0,       19.967547    ,      0.21047238E-05,       40.031142    
 Construction CTF,13,  15,   1,   5,   0.250,      14.00    ,   0.900,   0.900,   0.600,   0.600,Rough
 Material CTF Summary,13_1_7,  0.1000,         1.400,   2100.000,      840.000,  0.7143E-01
 CTF,   5,     -0.25637907E-06,      0.64027708E-07,     -0.25637907E-06,      0.20962219E-09
 CTF,   4,      0.14734376E-02,      0.43613400E-03,      0.14734376E-02,     -0.21982257E-05
 CTF,   3,     -0.48229000    ,      0.10406687    ,     -0.48229000    ,      0.15591152E-02
 CTF,   2,       13.293621    ,       1.8083218    ,       13.293621    ,     -0.85067103E-01
 CTF,   1,      -56.982141    ,       3.2317397    ,      -56.982141    ,      0.68556931    
 CTF,   0,       49.740510    ,      0.42660771    ,       49.740510    
 Construction CTF,14,  16,   1,   5,   0.250,      14.00    ,   0.900,   0.900,   0.600,   0.600,Rough
 Material CTF Summary,13_1_7,  0.1000,         1.400,   2100.000,      840.000,  0.7143E-01
 CTF,   5,     -0.25637907E-06,      0.64027708E-07,     -0.25637907E-06,      0.20962219E-09
 CTF,   4,      0.14734376E-02,      0.43613400E-03,      0.14734376E-02,     -0.21982257E-05
 CTF,   3,     -0.48229000    ,      0.10406687    ,     -0.48229000    ,      0.15591152E-02
 CTF,   2,       13.293621    ,       1.8083218    ,       13.293621    ,     -0.85067103E-01
 CTF,   1,      -56.982141    ,       3.2317397    ,      -56.982141    ,      0.68556931    
 CTF,   0,       49.740510    ,      0.42660771    ,       49.740510    
 Construction CTF,15,  17,   6,   9,   0.250,      3.470    ,   0.900,   0.900,   0.700,   0.600,Rough
 Material CTF Summary,1_1_10003,  0.0040,         0.230,   1100.000,     1000.000,  0.1739E-01
 Material CTF Summary,1_2_5134,  0.0250,         0.720,   1860.000,      840.000,  0.3472E-01
 Material CTF Summary,15_RVAL_3,  0.0000,         0.000,      0.000,        0.000,  0.5384E-01
 Material CTF Summary,1_4_5128,  0.1100,         0.850,   1500.000,      840.000,  0.1294    
 Material CTF Summary,3_1_5134,  0.0200,         0.720,   1860.000,      840.000,  0.2778E-01
 Material CTF Summary,11_1_5169,  0.0200,         0.800,   1700.000,      850.000,  0.2500E-01
 CTF,   9,     -0.56470201E-09,      0.68301376E-12,     -0.10842330E-08,      0.68080622E-13
 CTF,   8,      0.46189802E-06,      0.19964722E-08,      0.97824676E-06,     -0.15583447E-09
 CTF,   7,     -0.13109627E-03,      0.10500627E-05,     -0.31575611E-03,      0.11983839E-06
 CTF,   6,      0.11896028E-01,      0.11961570E-03,      0.30533385E-01,     -0.31796389E-04
 CTF,   5,     -0.37646168    ,      0.32789496E-02,     -0.87559627    ,      0.24912626E-02
 CTF,   4,       4.9112867    ,      0.23332596E-01,       9.3376917    ,     -0.55080099E-01
 CTF,   3,      -27.036148    ,      0.43657874E-01,      -44.240728    ,      0.43089440    
 CTF,   2,       65.912656    ,      0.18993042E-01,       99.915705    ,      -1.4262121    
 CTF,   1,      -71.188259    ,      0.12097464E-02,      -104.08881    ,       2.0218342    
 CTF,   0,       27.855754    ,      0.12620715E-05,       40.012113    
 Construction CTF,16,  18,   6,   9,   0.250,      3.470    ,   0.900,   0.900,   0.600,   0.700,Rough
 Material CTF Summary,11_1_5169,  0.0200,         0.800,   1700.000,      850.000,  0.2500E-01
 Material CTF Summary,3_1_5134,  0.0200,         0.720,   1860.000,      840.000,  0.2778E-01
 Material CTF Summary,1_4_5128,  0.1100,         0.850,   1500.000,      840.000,  0.1294    
 Material CTF Summary,16_RVAL_4,  0.0000,         0.000,      0.000,        0.000,  0.5384E-01
 Material CTF Summary,1_2_5134,  0.0250,         0.720,   1860.000,      840.000,  0.3472E-01
 Material CTF Summary,1_1_10003,  0.0040,         0.230,   1100.000,     1000.000,  0.1739E-01
 CTF,   9,     -0.10842330E-08,      0.68301205E-12,     -0.56470199E-09,      0.68081979E-13
 CTF,   8,      0.97824676E-06,      0.19964722E-08,      0.46189802E-06,     -0.15583446E-09
 CTF,   7,     -0.31575611E-03,      0.10500627E-05,     -0.13109627E-03,      0.11983839E-06
 CTF,   6,      0.30533385E-01,      0.11961570E-03,      0.11896028E-01,     -0.31796389E-04
 CTF,   5,     -0.87559627    ,      0.32789496E-02,     -0.37646168    ,      0.24912626E-02
 CTF,   4,       9.3376917    ,      0.23332596E-01,       4.9112867    ,     -0.55080099E-01
 CTF,   3,      -44.240728    ,      0.43657874E-01,      -27.036148    ,      0.43089440    
 CTF,   2,       99.915705    ,      0.18993042E-01,       65.912656    ,      -1.4262121    
 CTF,   1,      -104.08881    ,      0.12097464E-02,      -71.188259    ,       2.0218342    
 CTF,   0,       40.012113    ,      0.12620714E-05,       27.855754    
 Construction CTF,17,  19,   4,  13,   0.250,     0.3735    ,   0.900,   0.900,   0.700,   0.500,Rough
 Material CTF Summary,17_1_5,  0.1000,         0.840,   1700.000,      800.000,  0.1190    
 Material CTF Summary,17_2_103,  0.0792,         0.034,     35.000,     1400.000,   2.329    
 Material CTF Summary,17_3_11,  0.1000,         0.510,   1400.000,     1000.000,  0.1961    
 Material CTF Summary,17_4_66,  0.0130,         0.400,   1000.000,     1000.000,  0.3250E-01
 CTF,  13,     -0.25343945E-10,     -0.58401041E-14,     -0.18447637E-09,      0.14592292E-12
 CTF,  12,      0.61628109E-08,      0.82408312E-13,      0.30119814E-07,     -0.40115853E-10
 CTF,  11,     -0.77383225E-06,      0.25293419E-10,     -0.27731446E-05,      0.56677743E-08
 CTF,  10,      0.54768870E-04,      0.26332392E-08,      0.14956410E-03,     -0.45120214E-06
 CTF,   9,     -0.22650350E-02,      0.11534453E-06,     -0.48087993E-02,      0.21020628E-04
 CTF,   8,      0.55163056E-01,      0.22033490E-05,      0.93037694E-01,     -0.58077627E-03
 CTF,   7,     -0.78873476    ,      0.18638840E-04,      -1.0942294    ,      0.95427399E-02
 CTF,   6,       6.6758382    ,      0.69409822E-04,       7.9083821    ,     -0.93661606E-01
 CTF,   5,      -33.955422    ,      0.11008252E-03,      -35.599508    ,      0.55172076    
 CTF,   4,       105.08713    ,      0.68977536E-04,       100.61661    ,      -1.9692857    
 CTF,   3,      -197.56831    ,      0.14673874E-04,      -177.05810    ,       4.2461312    
 CTF,   2,       218.91981    ,      0.76807215E-06,       186.92578    ,      -5.3562042    
 CTF,   1,      -130.78018    ,      0.44396642E-08,      -107.76587    ,       3.6115544    
 CTF,   0,       32.357203    ,     -0.35827059E-10,       25.978853    
 Construction CTF,18,  20,   4,  13,   0.250,     0.3735    ,   0.900,   0.900,   0.500,   0.700,Rough
 Material CTF Summary,17_4_66,  0.0130,         0.400,   1000.000,     1000.000,  0.3250E-01
 Material CTF Summary,17_3_11,  0.1000,         0.510,   1400.000,     1000.000,  0.1961    
 Material CTF Summary,17_2_103,  0.0792,         0.034,     35.000,     1400.000,   2.329    
 Material CTF Summary,17_1_5,  0.1000,         0.840,   1700.000,      800.000,  0.1190    
 CTF,  13,     -0.18447637E-09,     -0.58401041E-14,     -0.25343945E-10,      0.14592292E-12
 CTF,  12,      0.30119814E-07,      0.82408312E-13,      0.61628109E-08,     -0.40115853E-10
 CTF,  11,     -0.27731446E-05,      0.25293419E-10,     -0.77383225E-06,      0.56677743E-08
 CTF,  10,      0.14956410E-03,      0.26332392E-08,      0.54768870E-04,     -0.45120214E-06
 CTF,   9,     -0.48087993E-02,      0.11534453E-06,     -0.22650350E-02,      0.21020628E-04
 CTF,   8,      0.93037694E-01,      0.22033490E-05,      0.55163056E-01,     -0.58077627E-03
 CTF,   7,      -1.0942294    ,      0.18638840E-04,     -0.78873476    ,      0.95427399E-02
 CTF,   6,       7.9083821    ,      0.69409822E-04,       6.6758382    ,     -0.93661606E-01
 CTF,   5,      -35.599508    ,      0.11008252E-03,      -33.955422    ,      0.55172076    
 CTF,   4,       100.61661    ,      0.68977536E-04,       105.08713    ,      -1.9692857    
 CTF,   3,      -177.05810    ,      0.14673874E-04,      -197.56831    ,       4.2461312    
 CTF,   2,       186.92578    ,      0.76807215E-06,       218.91981    ,      -5.3562042    
 CTF,   1,      -107.76587    ,      0.44396642E-08,      -130.78018    ,       3.6115544    
 CTF,   0,       25.978853    ,     -0.35827059E-10,       32.357203    
 Construction CTF,19,  21,   5,   9,   0.250,      4.480    ,   0.900,   0.900,   0.600,   0.600,Rough
 Material CTF Summary,11_1_5169,  0.0200,         0.800,   1700.000,      850.000,  0.2500E-01
 Material CTF Summary,3_1_5134,  0.0200,         0.720,   1860.000,      840.000,  0.2778E-01
 Material CTF Summary,19_3_5128,  0.1000,         0.850,   1500.000,      840.000,  0.1176    
 Material CTF Summary,3_1_5134,  0.0200,         0.720,   1860.000,      840.000,  0.2778E-01
 Material CTF Summary,11_1_5169,  0.0200,         0.800,   1700.000,      850.000,  0.2500E-01
 CTF,   9,     -0.15091703E-10,     -0.47816976E-13,     -0.15091685E-10,     -0.69925408E-19
 CTF,   8,      0.29128842E-07,      0.29158285E-09,      0.29128842E-07,     -0.23067143E-11
 CTF,   7,     -0.18811035E-04,      0.33950255E-06,     -0.18811035E-04,      0.39427717E-08
 CTF,   6,      0.37738529E-02,      0.74964401E-04,      0.37738529E-02,     -0.21334665E-05
 CTF,   5,     -0.21548770    ,      0.35578803E-02,     -0.21548770    ,      0.35130139E-03
 CTF,   4,       3.8893423    ,      0.39390160E-01,       3.8893423    ,     -0.15921888E-01
 CTF,   3,      -26.516599    ,      0.10485326    ,      -26.516599    ,      0.21233690    
 CTF,   2,       76.088292    ,      0.60933999E-01,       76.088292    ,     -0.99003722    
 CTF,   1,      -93.042902    ,      0.50235270E-02,      -93.042902    ,       1.7455432    
 CTF,   0,       40.007440    ,      0.67004908E-05,       40.007440    
 Construction CTF,20,  22,   5,   9,   0.250,      4.480    ,   0.900,   0.900,   0.600,   0.600,Rough
 Material CTF Summary,11_1_5169,  0.0200,         0.800,   1700.000,      850.000,  0.2500E-01
 Material CTF Summary,3_1_5134,  0.0200,         0.720,   1860.000,      840.000,  0.2778E-01
 Material CTF Summary,19_3_5128,  0.1000,         0.850,   1500.000,      840.000,  0.1176    
 Material CTF Summary,3_1_5134,  0.0200,         0.720,   1860.000,      840.000,  0.2778E-01
 Material CTF Summary,11_1_5169,  0.0200,         0.800,   1700.000,      850.000,  0.2500E-01
 CTF,   9,     -0.15091685E-10,     -0.47816976E-13,     -0.15091703E-10,     -0.69925408E-19
 CTF,   8,      0.29128842E-07,      0.29158285E-09,      0.29128842E-07,     -0.23067143E-11
 CTF,   7,     -0.18811035E-04,      0.33950255E-06,     -0.18811035E-04,      0.39427717E-08
 CTF,   6,      0.37738529E-02,      0.74964401E-04,      0.37738529E-02,     -0.21334665E-05
 CTF,   5,     -0.21548770    ,      0.35578803E-02,     -0.21548770    ,      0.35130139E-03
 CTF,   4,       3.8893423    ,      0.39390160E-01,       3.8893423    ,     -0.15921888E-01
 CTF,   3,      -26.516599    ,      0.10485326    ,      -26.516599    ,      0.21233690    
 CTF,   2,       76.088292    ,      0.60933999E-01,       76.088292    ,     -0.99003722    
 CTF,   1,      -93.042902    ,      0.50235270E-02,      -93.042902    ,       1.7455432    
 CTF,   0,       40.007440    ,      0.67004908E-05,       40.007440    
 Construction CTF,21,  23,   8,  10,   0.250,      3.124    ,   0.900,   0.900,   0.600,   0.600,Rough
 Material CTF Summary,11_1_5169,  0.0200,         0.800,   1700.000,      850.000,  0.2500E-01
 Material CTF Summary,3_1_5134,  0.0200,         0.720,   1860.000,      840.000,  0.2778E-01
 Material CTF Summary,1_4_5128,  0.1100,         0.850,   1500.000,      840.000,  0.1294    
 Material CTF Summary,21_RVAL_4,  0.0000,         0.000,      0.000,        0.000,  0.5384E-01
 Material CTF Summary,21_5_5134,  0.0100,         0.720,   1860.000,      840.000,  0.1389E-01
 Material CTF Summary,1_1_10003,  0.0040,         0.230,   1100.000,     1000.000,  0.1739E-01
 Material CTF Summary,3_1_5134,  0.0200,         0.720,   1860.000,      840.000,  0.2778E-01
 Material CTF Summary,11_1_5169,  0.0200,         0.800,   1700.000,      850.000,  0.2500E-01
 CTF,  10,      0.96027366E-10,      0.17081751E-12,      0.10861358E-09,     -0.66663680E-14
 CTF,   9,     -0.80438772E-07,      0.16297958E-09,     -0.88137382E-07,      0.13524414E-10
 CTF,   8,      0.26542568E-04,      0.88562384E-07,      0.26531171E-04,     -0.98215082E-08
 CTF,   7,     -0.29859089E-02,      0.12248227E-04,     -0.28432779E-02,      0.27126205E-05
 CTF,   6,      0.12215786    ,      0.47332402E-03,      0.12002267    ,     -0.25457680E-03
 CTF,   5,      -2.1386604    ,      0.54249077E-02,      -2.1345564    ,      0.86176521E-02
 CTF,   4,       17.029523    ,      0.18788074E-01,       16.946624    ,     -0.11991478    
 CTF,   3,      -65.284095    ,      0.18647196E-01,      -65.431447    ,      0.70927100    
 CTF,   2,       124.98234    ,      0.43414303E-02,       125.86396    ,      -1.8993760    
 CTF,   1,      -114.67261    ,      0.12788200E-03,      -115.22787    ,       2.2863490    
 CTF,   0,       40.012113    ,      0.24348072E-07,       39.913899    
 Construction CTF,22,  24,   8,  10,   0.250,      3.124    ,   0.900,   0.900,   0.600,   0.600,Rough
 Material CTF Summary,11_1_5169,  0.0200,         0.800,   1700.000,      850.000,  0.2500E-01
 Material CTF Summary,3_1_5134,  0.0200,         0.720,   1860.000,      840.000,  0.2778E-01
 Material CTF Summary,1_1_10003,  0.0040,         0.230,   1100.000,     1000.000,  0.1739E-01
 Material CTF Summary,21_5_5134,  0.0100,         0.720,   1860.000,      840.000,  0.1389E-01
 Material CTF Summary,22_RVAL_5,  0.0000,         0.000,      0.000,        0.000,  0.5384E-01
 Material CTF Summary,1_4_5128,  0.1100,         0.850,   1500.000,      840.000,  0.1294    
 Material CTF Summary,3_1_5134,  0.0200,         0.720,   1860.000,      840.000,  0.2778E-01
 Material CTF Summary,11_1_5169,  0.0200,         0.800,   1700.000,      850.000,  0.2500E-01
 CTF,  10,      0.10861357E-09,      0.17083008E-12,      0.96027330E-10,     -0.66651107E-14
 CTF,   9,     -0.88137382E-07,      0.16297961E-09,     -0.80438772E-07,      0.13524415E-10
 CTF,   8,      0.26531171E-04,      0.88562384E-07,      0.26542568E-04,     -0.98215082E-08
 CTF,   7,     -0.28432779E-02,      0.12248227E-04,     -0.29859089E-02,      0.27126205E-05
 CTF,   6,      0.12002267    ,      0.47332402E-03,      0.12215786    ,     -0.25457680E-03
 CTF,   5,      -2.1345564    ,      0.54249077E-02,      -2.1386604    ,      0.86176521E-02
 CTF,   4,       16.946624    ,      0.18788074E-01,       17.029523    ,     -0.11991478    
 CTF,   3,      -65.431447    ,      0.18647196E-01,      -65.284095    ,      0.70927100    
 CTF,   2,       125.86396    ,      0.43414303E-02,       124.98234    ,      -1.8993760    
 CTF,   1,      -115.22787    ,      0.12788200E-03,      -114.67261    ,       2.2863490    
 CTF,   0,       39.913899    ,      0.24348025E-07,       40.012113    
 Construction CTF,23,  25,   4,   9,   0.250,      3.891    ,   0.900,   0.900,   0.600,   0.600,Rough
 Material CTF Summary,3_1_5134,  0.0200,         0.720,   1860.000,      840.000,  0.2778E-01
 Material CTF Summary,3_2_5128,  0.1500,         0.850,   1500.000,      840.000,  0.1765    
 Material CTF Summary,3_1_5134,  0.0200,         0.720,   1860.000,      840.000,  0.2778E-01
 Material CTF Summary,11_1_5169,  0.0200,         0.800,   1700.000,      850.000,  0.2500E-01
 CTF,   9,     -0.15273665E-06,      0.24030015E-12,     -0.13436860E-06,      0.10896830E-12
 CTF,   8,      0.39384286E-04,      0.16325232E-08,      0.49559390E-04,     -0.20541695E-07
 CTF,   7,     -0.32104787E-02,      0.12163345E-05,     -0.39417324E-02,      0.47291485E-05
 CTF,   6,      0.11222677    ,      0.13035259E-03,      0.12666112    ,     -0.31063878E-03
 CTF,   5,      -1.8371049    ,      0.31661477E-02,      -1.9272453    ,      0.84320845E-02
 CTF,   4,       14.613980    ,      0.20748218E-01,       14.728922    ,     -0.10480195    
 CTF,   3,      -58.116940    ,      0.37802079E-01,      -57.752381    ,      0.61639100    
 CTF,   2,       116.36510    ,      0.17031859E-01,       115.38946    ,      -1.7238024    
 CTF,   1,      -111.24193    ,      0.12427198E-02,      -110.51254    ,       2.1834930    
 CTF,   0,       40.187965    ,      0.22816236E-05,       40.031142    
 Construction CTF,24,  26,   4,   9,   0.250,      3.891    ,   0.900,   0.900,   0.600,   0.600,Rough
 Material CTF Summary,11_1_5169,  0.0200,         0.800,   1700.000,      850.000,  0.2500E-01
 Material CTF Summary,3_1_5134,  0.0200,         0.720,   1860.000,      840.000,  0.2778E-01
 Material CTF Summary,3_2_5128,  0.1500,         0.850,   1500.000,      840.000,  0.1765    
 Material CTF Summary,3_1_5134,  0.0200,         0.720,   1860.000,      840.000,  0.2778E-01
 CTF,   9,     -0.13436860E-06,      0.24030015E-12,     -0.15273665E-06,      0.10896830E-12
 CTF,   8,      0.49559390E-04,      0.16325232E-08,      0.39384286E-04,     -0.20541695E-07
 CTF,   7,     -0.39417324E-02,      0.12163345E-05,     -0.32104787E-02,      0.47291485E-05
 CTF,   6,      0.12666112    ,      0.13035259E-03,      0.11222677    ,     -0.31063878E-03
 CTF,   5,      -1.9272453    ,      0.31661477E-02,      -1.8371049    ,      0.84320845E-02
 CTF,   4,       14.728922    ,      0.20748218E-01,       14.613980    ,     -0.10480195    
 CTF,   3,      -57.752381    ,      0.37802079E-01,      -58.116940    ,      0.61639100    
 CTF,   2,       115.38946    ,      0.17031859E-01,       116.36510    ,      -1.7238024    
 CTF,   1,      -110.51254    ,      0.12427198E-02,      -111.24193    ,       2.1834930    
 CTF,   0,       40.031142    ,      0.22816236E-05,       40.187965    
 Construction CTF,25,  27,   5,   9,   0.250,      3.581    ,   0.900,   0.900,   0.580,   0.500,Rough
 Material CTF Summary,25_1_56,  0.0200,         2.770,   2600.000,      802.000,  0.7220E-02
 Material CTF Summary,3_1_5134,  0.0200,         0.720,   1860.000,      840.000,  0.2778E-01
 Material CTF Summary,3_2_5128,  0.1500,         0.850,   1500.000,      840.000,  0.1765    
 Material CTF Summary,25_RVAL_4,  0.0000,         0.000,      0.000,        0.000,  0.4280E-01
 Material CTF Summary,1_6_66,  0.0100,         0.400,   1000.000,     1000.000,  0.2500E-01
 CTF,   9,     -0.12532758E-07,      0.24317698E-12,     -0.70579687E-08,      0.27265078E-14
 CTF,   8,      0.29485739E-04,      0.11181646E-09,      0.68097453E-05,     -0.10247530E-08
 CTF,   7,     -0.34930611E-02,      0.20698779E-06,     -0.78890292E-03,      0.97526571E-06
 CTF,   6,      0.14831964    ,      0.41624246E-04,      0.33104204E-01,     -0.10348582E-03
 CTF,   5,      -2.7801985    ,      0.16151648E-02,     -0.61072454    ,      0.39386590E-02
 CTF,   4,       24.360112    ,      0.15370919E-01,       5.3393465    ,     -0.63877825E-01
 CTF,   3,      -102.34321    ,      0.38421438E-01,      -23.128353    ,      0.46048540    
 CTF,   2,       209.18412    ,      0.23219924E-01,       50.231034    ,      -1.4846811    
 CTF,   1,      -199.93739    ,      0.23500428E-02,      -51.750145    ,       2.0616090    
 CTF,   0,       71.452750    ,      0.79737032E-05,       19.967547    
 Construction CTF,26,  28,   5,   9,   0.250,      3.581    ,   0.900,   0.900,   0.500,   0.580,Rough
 Material CTF Summary,1_6_66,  0.0100,         0.400,   1000.000,     1000.000,  0.2500E-01
 Material CTF Summary,26_RVAL_2,  0.0000,         0.000,      0.000,        0.000,  0.4280E-01
 Material CTF Summary,3_2_5128,  0.1500,         0.850,   1500.000,      840.000,  0.1765    
 Material CTF Summary,3_1_5134,  0.0200,         0.720,   1860.000,      840.000,  0.2778E-01
 Material CTF Summary,25_1_56,  0.0200,         2.770,   2600.000,      802.000,  0.7220E-02
 CTF,   9,     -0.70579687E-08,     -0.24318631E-12,     -0.12532758E-07,      0.27227724E-14
 CTF,   8,      0.68097453E-05,      0.11181643E-09,      0.29485739E-04,     -0.10247530E-08
 CTF,   7,     -0.78890292E-03,      0.20698779E-06,     -0.34930611E-02,      0.97526571E-06
 CTF,   6,      0.33104204E-01,      0.41624246E-04,      0.14831964    ,     -0.10348582E-03
 CTF,   5,     -0.61072454    ,      0.16151648E-02,      -2.7801985    ,      0.39386590E-02
 CTF,   4,       5.3393465    ,      0.15370919E-01,       24.360112    ,     -0.63877825E-01
 CTF,   3,      -23.128353    ,      0.38421438E-01,      -102.34321    ,      0.46048540    
 CTF,   2,       50.231034    ,      0.23219924E-01,       209.18412    ,      -1.4846811    
 CTF,   1,      -51.750145    ,      0.23500428E-02,      -199.93739    ,       2.0616090    
 CTF,   0,       19.967547    ,      0.79737035E-05,       71.452750    
 Construction CTF,27,  29,   1,   2,   0.250,      2.710    ,   0.900,   0.900,   0.700,   0.700,Rough
 Material CTF Summary,27_1_10005,  0.0100,         0.027,      1.300,     1005.000,  0.3690    
 CTF,   2,      0.69371355E-14,      0.41006733E-14,      0.69371355E-14,       0.0000000    
 CTF,   1,     -0.45700617E-02,      0.26882716E-02,     -0.45700617E-02,      0.58655897E-11
 CTF,   0,       2.7145701    ,       2.7073117    ,       2.7145701    
 Construction CTF,28,  30,   1,   2,   0.250,      2.710    ,   0.900,   0.900,   0.700,   0.700,Rough
 Material CTF Summary,27_1_10005,  0.0100,         0.027,      1.300,     1005.000,  0.3690    
 CTF,   2,      0.69371355E-14,      0.41006733E-14,      0.69371355E-14,       0.0000000    
 CTF,   1,     -0.45700617E-02,      0.26882716E-02,     -0.45700617E-02,      0.58655897E-11
 CTF,   0,       2.7145701    ,       2.7073117    ,       2.7145701    
 Construction CTF,29,  31,   5,   7,   0.250,      3.949    ,   0.900,   0.900,   0.500,   0.500,Rough
 Material CTF Summary,1_6_66,  0.0100,         0.400,   1000.000,     1000.000,  0.2500E-01
 Material CTF Summary,29_RVAL_2,  0.0000,         0.000,      0.000,        0.000,  0.4280E-01
 Material CTF Summary,19_3_5128,  0.1000,         0.850,   1500.000,      840.000,  0.1176    
 Material CTF Summary,29_RVAL_4,  0.0000,         0.000,      0.000,        0.000,  0.4280E-01
 Material CTF Summary,1_6_66,  0.0100,         0.400,   1000.000,     1000.000,  0.2500E-01
 CTF,   7,     -0.85689445E-09,      0.31252609E-11,     -0.85689443E-09,      0.12382145E-13
 CTF,   6,      0.27987818E-05,      0.29451795E-07,      0.27987818E-05,     -0.13313452E-09
 CTF,   5,     -0.21778185E-02,      0.30288443E-04,     -0.21778185E-02,      0.40309881E-06
 CTF,   4,      0.25088876    ,      0.38622070E-02,      0.25088876    ,     -0.29285447E-03
 CTF,   3,      -4.4583418    ,      0.67411080E-01,      -4.4583418    ,      0.31077586E-01
 CTF,   2,       21.570257    ,      0.18268997    ,       21.570257    ,     -0.44735278    
 CTF,   1,      -36.789036    ,      0.70025446E-01,      -36.789036    ,       1.3341609    
 CTF,   0,       19.753808    ,      0.13816495E-02,       19.753808    
 Construction CTF,30,  32,   5,   7,   0.250,      3.949    ,   0.900,   0.900,   0.500,   0.500,Rough
 Material CTF Summary,1_6_66,  0.0100,         0.400,   1000.000,     1000.000,  0.2500E-01
 Material CTF Summary,30_RVAL_2,  0.0000,         0.000,      0.000,        0.000,  0.4280E-01
 Material CTF Summary,19_3_5128,  0.1000,         0.850,   1500.000,      840.000,  0.1176    
 Material CTF Summary,30_RVAL_4,  0.0000,         0.000,      0.000,        0.000,  0.4280E-01
 Material CTF Summary,1_6_66,  0.0100,         0.400,   1000.000,     1000.000,  0.2500E-01
 CTF,   7,     -0.85689445E-09,      0.31252609E-11,     -0.85689443E-09,      0.12382145E-13
 CTF,   6,      0.27987818E-05,      0.29451795E-07,      0.27987818E-05,     -0.13313452E-09
 CTF,   5,     -0.21778185E-02,      0.30288443E-04,     -0.21778185E-02,      0.40309881E-06
 CTF,   4,      0.25088876    ,      0.38622070E-02,      0.25088876    ,     -0.29285447E-03
 CTF,   3,      -4.4583418    ,      0.67411080E-01,      -4.4583418    ,      0.31077586E-01
 CTF,   2,       21.570257    ,      0.18268997    ,       21.570257    ,     -0.44735278    
 CTF,   1,      -36.789036    ,      0.70025446E-01,      -36.789036    ,       1.3341609    
 CTF,   0,       19.753808    ,      0.13816495E-02,       19.753808    
 Construction CTF,31,  33,   1,   5,   0.250,      5.429    ,   0.900,   0.900,   0.500,   0.500,Rough
 Material CTF Summary,7_1_108,  0.0350,         0.190,    700.000,     2390.000,  0.1842    
 CTF,   5,     -0.69746978E-08,      0.29253874E-08,     -0.69746978E-08,      0.49448836E-11
 CTF,   4,      0.13011253E-03,      0.55672036E-04,      0.13011253E-03,     -0.23619261E-06
 CTF,   3,     -0.88188145E-01,      0.26293651E-01,     -0.88188145E-01,      0.50101879E-03
 CTF,   2,       3.7060969    ,      0.68563325    ,       3.7060969    ,     -0.51493902E-01
 CTF,   1,      -19.348738    ,       1.5755462    ,      -19.348738    ,      0.58292536    
 CTF,   0,       18.271638    ,      0.25341045    ,       18.271638    
 Construction CTF,32,  34,   1,   5,   0.250,      5.429    ,   0.900,   0.900,   0.500,   0.500,Rough
 Material CTF Summary,7_1_108,  0.0350,         0.190,    700.000,     2390.000,  0.1842    
 CTF,   5,     -0.69746978E-08,      0.29253874E-08,     -0.69746978E-08,      0.49448836E-11
 CTF,   4,      0.13011253E-03,      0.55672036E-04,      0.13011253E-03,     -0.23619261E-06
 CTF,   3,     -0.88188145E-01,      0.26293651E-01,     -0.88188145E-01,      0.50101879E-03
 CTF,   2,       3.7060969    ,      0.68563325    ,       3.7060969    ,     -0.51493902E-01
 CTF,   1,      -19.348738    ,       1.5755462    ,      -19.348738    ,      0.58292536    
 CTF,   0,       18.271638    ,      0.25341045    ,       18.271638    
 Construction CTF,33,  35,   5,   9,   0.250,      3.366    ,   0.900,   0.900,   0.500,   0.600,Rough
 Material CTF Summary,1_6_66,  0.0100,         0.400,   1000.000,     1000.000,  0.2500E-01
 Material CTF Summary,33_RVAL_2,  0.0000,         0.000,      0.000,        0.000,  0.4280E-01
 Material CTF Summary,3_2_5128,  0.1500,         0.850,   1500.000,      840.000,  0.1765    
 Material CTF Summary,3_1_5134,  0.0200,         0.720,   1860.000,      840.000,  0.2778E-01
 Material CTF Summary,11_1_5169,  0.0200,         0.800,   1700.000,      850.000,  0.2500E-01
 CTF,   9,     -0.86284989E-07,      0.20074475E-12,     -0.81830033E-07,      0.71036785E-13
 CTF,   8,      0.22645134E-04,      0.59500605E-09,      0.31869022E-04,     -0.12509566E-07
 CTF,   7,     -0.18819022E-02,      0.51926929E-06,     -0.29747913E-02,      0.31383121E-05
 CTF,   6,      0.64962581E-01,      0.63579094E-04,      0.11004774    ,     -0.24112768E-03
 CTF,   5,      -1.0196245    ,      0.17266078E-02,      -1.8477286    ,      0.75433648E-02
 CTF,   4,       7.7153793    ,      0.12393532E-01,       14.914958    ,     -0.10311913    
 CTF,   3,      -29.553782    ,      0.24368911E-01,      -59.659279    ,      0.63366436    
 CTF,   2,       58.027639    ,      0.11792861E-01,       118.95248    ,      -1.7849119    
 CTF,   1,      -55.148976    ,      0.93834677E-03,      -112.44739    ,       2.2318268    
 CTF,   0,       19.967547    ,      0.21047238E-05,       40.031142    
 Construction CTF,34,  36,   5,   9,   0.250,      3.366    ,   0.900,   0.900,   0.600,   0.500,Rough
 Material CTF Summary,11_1_5169,  0.0200,         0.800,   1700.000,      850.000,  0.2500E-01
 Material CTF Summary,3_1_5134,  0.0200,         0.720,   1860.000,      840.000,  0.2778E-01
 Material CTF Summary,3_2_5128,  0.1500,         0.850,   1500.000,      840.000,  0.1765    
 Material CTF Summary,34_RVAL_4,  0.0000,         0.000,      0.000,        0.000,  0.4280E-01
 Material CTF Summary,1_6_66,  0.0100,         0.400,   1000.000,     1000.000,  0.2500E-01
 CTF,   9,     -0.81830033E-07,      0.20076962E-12,     -0.86284989E-07,      0.71039766E-13
 CTF,   8,      0.31869022E-04,      0.59500609E-09,      0.22645134E-04,     -0.12509566E-07
 CTF,   7,     -0.29747913E-02,      0.51926929E-06,     -0.18819022E-02,      0.31383121E-05
 CTF,   6,      0.11004774    ,      0.63579094E-04,      0.64962581E-01,     -0.24112768E-03
 CTF,   5,      -1.8477286    ,      0.17266078E-02,      -1.0196245    ,      0.75433648E-02
 CTF,   4,       14.914958    ,      0.12393532E-01,       7.7153793    ,     -0.10311913    
 CTF,   3,      -59.659279    ,      0.24368911E-01,      -29.553782    ,      0.63366436    
 CTF,   2,       118.95248    ,      0.11792861E-01,       58.027639    ,      -1.7849119    
 CTF,   1,      -112.44739    ,      0.93834678E-03,      -55.148976    ,       2.2318268    
 CTF,   0,       40.031142    ,      0.21047233E-05,       19.967547    
 Construction CTF,35,  37,   7,   9,   0.250,      2.966    ,   0.900,   0.900,   0.500,   0.600,Rough
 Material CTF Summary,1_6_66,  0.0100,         0.400,   1000.000,     1000.000,  0.2500E-01
 Material CTF Summary,35_RVAL_2,  0.0000,         0.000,      0.000,        0.000,  0.4280E-01
 Material CTF Summary,1_4_5128,  0.1100,         0.850,   1500.000,      840.000,  0.1294    
 Material CTF Summary,35_RVAL_4,  0.0000,         0.000,      0.000,        0.000,  0.5384E-01
 Material CTF Summary,3_1_5134,  0.0200,         0.720,   1860.000,      840.000,  0.2778E-01
 Material CTF Summary,11_1_5169,  0.0200,         0.800,   1700.000,      850.000,  0.2500E-01
 Material CTF Summary,35_7_88,  0.0020,         0.060,    186.300,     1360.000,  0.3333E-01
 CTF,   9,     -0.31807116E-09,     -0.28260874E-13,     -0.22667868E-10,      0.14311418E-13
 CTF,   8,      0.34610036E-06,      0.19200291E-09,      0.26412269E-07,     -0.47383739E-10
 CTF,   7,     -0.11496476E-03,      0.16941865E-06,     -0.11284590E-04,      0.48623988E-07
 CTF,   6,      0.11238548E-01,      0.29041666E-04,      0.18441770E-02,     -0.15250482E-04
 CTF,   5,     -0.39269423    ,      0.11190834E-02,     -0.10039449    ,      0.14031305E-02
 CTF,   4,       4.7199021    ,      0.10542464E-01,       1.8486619    ,     -0.44753785E-01
 CTF,   3,      -22.922155    ,      0.24917908E-01,      -13.306107    ,      0.44053518    
 CTF,   2,       51.089480    ,      0.13461631E-01,       37.907849    ,      -1.5255267    
 CTF,   1,      -52.246327    ,      0.11118253E-02,      -44.660952    ,       2.1111000    
 CTF,   0,       19.791855    ,      0.21016994E-05,       18.360294    
 Construction CTF,36,  38,   7,   9,   0.250,      2.966    ,   0.900,   0.900,   0.600,   0.500,Rough
 Material CTF Summary,35_7_88,  0.0020,         0.060,    186.300,     1360.000,  0.3333E-01
 Material CTF Summary,11_1_5169,  0.0200,         0.800,   1700.000,      850.000,  0.2500E-01
 Material CTF Summary,3_1_5134,  0.0200,         0.720,   1860.000,      840.000,  0.2778E-01
 Material CTF Summary,36_RVAL_4,  0.0000,         0.000,      0.000,        0.000,  0.5384E-01
 Material CTF Summary,1_4_5128,  0.1100,         0.850,   1500.000,      840.000,  0.1294    
 Material CTF Summary,36_RVAL_6,  0.0000,         0.000,      0.000,        0.000,  0.4280E-01
 Material CTF Summary,1_6_66,  0.0100,         0.400,   1000.000,     1000.000,  0.2500E-01
 CTF,   9,     -0.22667840E-10,      0.28243459E-13,     -0.31807119E-09,      0.14310041E-13
 CTF,   8,      0.26412269E-07,      0.19200290E-09,      0.34610036E-06,     -0.47383741E-10
 CTF,   7,     -0.11284590E-04,      0.16941865E-06,     -0.11496476E-03,      0.48623988E-07
 CTF,   6,      0.18441770E-02,      0.29041666E-04,      0.11238548E-01,     -0.15250482E-04
 CTF,   5,     -0.10039449    ,      0.11190834E-02,     -0.39269423    ,      0.14031305E-02
 CTF,   4,       1.8486619    ,      0.10542464E-01,       4.7199021    ,     -0.44753785E-01
 CTF,   3,      -13.306107    ,      0.24917908E-01,      -22.922155    ,      0.44053518    
 CTF,   2,       37.907849    ,      0.13461631E-01,       51.089480    ,      -1.5255267    
 CTF,   1,      -44.660952    ,      0.11118253E-02,      -52.246327    ,       2.1111000    
 CTF,   0,       18.360294    ,      0.21016971E-05,       19.791855    
 Construction CTF,37,  39,   5,  10,   0.250,      3.784    ,   0.900,   0.900,   0.580,   0.600,Rough
 Material CTF Summary,25_1_56,  0.0200,         2.770,   2600.000,      802.000,  0.7220E-02
 Material CTF Summary,3_1_5134,  0.0200,         0.720,   1860.000,      840.000,  0.2778E-01
 Material CTF Summary,3_2_5128,  0.1500,         0.850,   1500.000,      840.000,  0.1765    
 Material CTF Summary,3_1_5134,  0.0200,         0.720,   1860.000,      840.000,  0.2778E-01
 Material CTF Summary,11_1_5169,  0.0200,         0.800,   1700.000,      850.000,  0.2500E-01
 CTF,  10,      0.54963252E-09,      0.44601075E-12,      0.29338921E-09,      0.64088304E-17
 CTF,   9,     -0.13501666E-05,      0.68506133E-11,     -0.35127257E-06,      0.44926102E-10
 CTF,   8,      0.28846224E-03,      0.13949113E-07,      0.96249348E-04,     -0.47498999E-07
 CTF,   7,     -0.18447327E-01,      0.41882449E-05,     -0.67011643E-02,      0.89220018E-05
 CTF,   6,      0.50030047    ,      0.26304986E-03,      0.19139021    ,     -0.51612011E-03
 CTF,   5,      -6.4716741    ,      0.43514831E-02,      -2.6115209    ,      0.12386725E-01
 CTF,   4,       42.133762    ,      0.20900384E-01,       18.162842    ,     -0.13706268    
 CTF,   3,      -142.31028    ,      0.28910480E-01,      -66.013529    ,      0.73139623    
 CTF,   2,       249.94965    ,      0.99088728E-02,       124.47937    ,      -1.8981655    
 CTF,   1,      -215.17150    ,      0.51787916E-03,      -114.16823    ,       2.2748143    
 CTF,   0,       71.452750    ,      0.46790352E-06,       40.031142    
 Construction CTF,38,  40,   5,  10,   0.250,      3.784    ,   0.900,   0.900,   0.600,   0.580,Rough
 Material CTF Summary,11_1_5169,  0.0200,         0.800,   1700.000,      850.000,  0.2500E-01
 Material CTF Summary,3_1_5134,  0.0200,         0.720,   1860.000,      840.000,  0.2778E-01
 Material CTF Summary,3_2_5128,  0.1500,         0.850,   1500.000,      840.000,  0.1765    
 Material CTF Summary,3_1_5134,  0.0200,         0.720,   1860.000,      840.000,  0.2778E-01
 Material CTF Summary,25_1_56,  0.0200,         2.770,   2600.000,      802.000,  0.7220E-02
 CTF,  10,      0.29338921E-09,      0.44601075E-12,      0.54963252E-09,      0.64088304E-17
 CTF,   9,     -0.35127257E-06,      0.68506133E-11,     -0.13501666E-05,      0.44926102E-10
 CTF,   8,      0.96249348E-04,      0.13949113E-07,      0.28846224E-03,     -0.47498999E-07
 CTF,   7,     -0.67011643E-02,      0.41882449E-05,     -0.18447327E-01,      0.89220018E-05
 CTF,   6,      0.19139021    ,      0.26304986E-03,      0.50030047    ,     -0.51612011E-03
 CTF,   5,      -2.6115209    ,      0.43514831E-02,      -6.4716741    ,      0.12386725E-01
 CTF,   4,       18.162842    ,      0.20900384E-01,       42.133762    ,     -0.13706268    
 CTF,   3,      -66.013529    ,      0.28910480E-01,      -142.31028    ,      0.73139623    
 CTF,   2,       124.47937    ,      0.99088728E-02,       249.94965    ,      -1.8981655    
 CTF,   1,      -114.16823    ,      0.51787916E-03,      -215.17150    ,       2.2748143    
 CTF,   0,       40.031142    ,      0.46790352E-06,       71.452750    
 Construction CTF,39,  41,   8,   9,   0.250,      2.984    ,   0.900,   0.900,   0.500,   0.600,Rough
 Material CTF Summary,1_6_66,  0.0100,         0.400,   1000.000,     1000.000,  0.2500E-01
 Material CTF Summary,39_RVAL_2,  0.0000,         0.000,      0.000,        0.000,  0.4280E-01
 Material CTF Summary,1_4_5128,  0.1100,         0.850,   1500.000,      840.000,  0.1294    
 Material CTF Summary,39_RVAL_4,  0.0000,         0.000,      0.000,        0.000,  0.5384E-01
 Material CTF Summary,21_5_5134,  0.0100,         0.720,   1860.000,      840.000,  0.1389E-01
 Material CTF Summary,1_1_10003,  0.0040,         0.230,   1100.000,     1000.000,  0.1739E-01
 Material CTF Summary,3_1_5134,  0.0200,         0.720,   1860.000,      840.000,  0.2778E-01
 Material CTF Summary,11_1_5169,  0.0200,         0.800,   1700.000,      850.000,  0.2500E-01
 CTF,   9,     -0.97071159E-09,      0.66317271E-12,     -0.11302687E-08,      0.70866554E-13
 CTF,   8,      0.80200223E-06,      0.17901407E-08,      0.10005484E-05,     -0.14204031E-09
 CTF,   7,     -0.22553389E-03,      0.82812979E-06,     -0.29262455E-03,      0.11163475E-06
 CTF,   6,      0.17445816E-01,      0.87070075E-04,      0.25147679E-01,     -0.29677768E-04
 CTF,   5,     -0.46260108    ,      0.22737794E-02,     -0.78759336    ,      0.21376347E-02
 CTF,   4,       4.8783529    ,      0.15662233E-01,       9.2242204    ,     -0.50943273E-01
 CTF,   3,      -22.653195    ,      0.28439319E-01,      -46.014742    ,      0.44254118    
 CTF,   2,       50.094943    ,      0.11948867E-01,       104.64306    ,      -1.4923434    
 CTF,   1,      -51.607438    ,      0.72544693E-03,      -106.94456    ,       2.0788196    
 CTF,   0,       19.791855    ,      0.67859433E-06,       39.913899    
 Construction CTF,40,  42,   8,   9,   0.250,      2.984    ,   0.900,   0.900,   0.600,   0.500,Rough
 Material CTF Summary,11_1_5169,  0.0200,         0.800,   1700.000,      850.000,  0.2500E-01
 Material CTF Summary,3_1_5134,  0.0200,         0.720,   1860.000,      840.000,  0.2778E-01
 Material CTF Summary,1_1_10003,  0.0040,         0.230,   1100.000,     1000.000,  0.1739E-01
 Material CTF Summary,21_5_5134,  0.0100,         0.720,   1860.000,      840.000,  0.1389E-01
 Material CTF Summary,40_RVAL_5,  0.0000,         0.000,      0.000,        0.000,  0.5384E-01
 Material CTF Summary,1_4_5128,  0.1100,         0.850,   1500.000,      840.000,  0.1294    
 Material CTF Summary,40_RVAL_7,  0.0000,         0.000,      0.000,        0.000,  0.4280E-01
 Material CTF Summary,1_6_66,  0.0100,         0.400,   1000.000,     1000.000,  0.2500E-01
 CTF,   9,     -0.11302687E-08,      0.66314653E-12,     -0.97071154E-09,      0.70865363E-13
 CTF,   8,      0.10005484E-05,      0.17901407E-08,      0.80200223E-06,     -0.14204031E-09
 CTF,   7,     -0.29262455E-03,      0.82812979E-06,     -0.22553389E-03,      0.11163475E-06
 CTF,   6,      0.25147679E-01,      0.87070075E-04,      0.17445816E-01,     -0.29677768E-04
 CTF,   5,     -0.78759336    ,      0.22737794E-02,     -0.46260108    ,      0.21376347E-02
 CTF,   4,       9.2242204    ,      0.15662233E-01,       4.8783529    ,     -0.50943273E-01
 CTF,   3,      -46.014742    ,      0.28439319E-01,      -22.653195    ,      0.44254118    
 CTF,   2,       104.64306    ,      0.11948867E-01,       50.094943    ,      -1.4923434    
 CTF,   1,      -106.94456    ,      0.72544693E-03,      -51.607438    ,       2.0788196    
 CTF,   0,       39.913899    ,      0.67859405E-06,       19.791855    
 Construction CTF,41,  43,   6,   9,   0.250,      3.203    ,   0.900,   0.900,   0.500,   0.600,Rough
 Material CTF Summary,1_6_66,  0.0100,         0.400,   1000.000,     1000.000,  0.2500E-01
 Material CTF Summary,41_RVAL_2,  0.0000,         0.000,      0.000,        0.000,  0.4280E-01
 Material CTF Summary,1_4_5128,  0.1100,         0.850,   1500.000,      840.000,  0.1294    
 Material CTF Summary,41_RVAL_4,  0.0000,         0.000,      0.000,        0.000,  0.5384E-01
 Material CTF Summary,3_1_5134,  0.0200,         0.720,   1860.000,      840.000,  0.2778E-01
 Material CTF Summary,41_6_197,  0.0020,         0.060,    200.000,     1300.000,  0.3333E-01
 CTF,   9,     -0.27715227E-11,     -0.42841067E-13,     -0.28829926E-12,      0.69252304E-16
 CTF,   8,      0.93417477E-08,      0.15301006E-11,      0.78312956E-09,     -0.43333075E-12
 CTF,   7,     -0.94323679E-05,      0.79108193E-08,     -0.80015129E-06,      0.13891901E-08
 CTF,   6,      0.26786233E-02,      0.49319616E-05,      0.25493480E-03,     -0.13184478E-05
 CTF,   5,     -0.16467168    ,      0.50904520E-03,     -0.25215256E-01,      0.35116680E-03
 CTF,   4,       2.5589318    ,      0.10162418E-01,      0.87617701    ,     -0.19683073E-01
 CTF,   3,      -15.087955    ,      0.43997859E-01,      -8.8696810    ,      0.25299115    
 CTF,   2,       39.774460    ,      0.40973655E-01,       30.118451    ,      -1.1000192    
 CTF,   1,      -46.773479    ,      0.61282458E-02,      -39.790679    ,       1.8345798    
 CTF,   0,       19.791855    ,      0.34575361E-04,       17.792504    
 Construction CTF,42,  44,   6,   9,   0.250,      3.203    ,   0.900,   0.900,   0.600,   0.500,Rough
 Material CTF Summary,41_6_197,  0.0020,         0.060,    200.000,     1300.000,  0.3333E-01
 Material CTF Summary,3_1_5134,  0.0200,         0.720,   1860.000,      840.000,  0.2778E-01
 Material CTF Summary,42_RVAL_3,  0.0000,         0.000,      0.000,        0.000,  0.5384E-01
 Material CTF Summary,1_4_5128,  0.1100,         0.850,   1500.000,      840.000,  0.1294    
 Material CTF Summary,42_RVAL_5,  0.0000,         0.000,      0.000,        0.000,  0.4280E-01
 Material CTF Summary,1_6_66,  0.0100,         0.400,   1000.000,     1000.000,  0.2500E-01
 CTF,   9,     -0.28823804E-12,     -0.42833840E-13,     -0.27714755E-11,      0.69204943E-16
 CTF,   8,      0.78312957E-09,      0.15301145E-11,      0.93417477E-08,     -0.43332648E-12
 CTF,   7,     -0.80015129E-06,      0.79108193E-08,     -0.94323679E-05,      0.13891901E-08
 CTF,   6,      0.25493480E-03,      0.49319616E-05,      0.26786233E-02,     -0.13184478E-05
 CTF,   5,     -0.25215256E-01,      0.50904520E-03,     -0.16467168    ,      0.35116680E-03
 CTF,   4,      0.87617701    ,      0.10162418E-01,       2.5589318    ,     -0.19683073E-01
 CTF,   3,      -8.8696810    ,      0.43997859E-01,      -15.087955    ,      0.25299115    
 CTF,   2,       30.118451    ,      0.40973655E-01,       39.774460    ,      -1.1000192    
 CTF,   1,      -39.790679    ,      0.61282458E-02,      -46.773479    ,       1.8345798    
 CTF,   0,       17.792504    ,      0.34575360E-04,       19.791855    
 Construction CTF,43,  45,   4,  13,   0.250,     0.3735    ,   0.900,   0.900,   0.700,   0.500,Rough
 Material CTF Summary,17_1_5,  0.1000,         0.840,   1700.000,      800.000,  0.1190    
 Material CTF Summary,17_2_103,  0.0792,         0.034,     35.000,     1400.000,   2.329    
 Material CTF Summary,17_3_11,  0.1000,         0.510,   1400.000,     1000.000,  0.1961    
 Material CTF Summary,17_4_66,  0.0130,         0.400,   1000.000,     1000.000,  0.3250E-01
 CTF,  13,     -0.25343945E-10,     -0.58401041E-14,     -0.18447637E-09,      0.14592292E-12
 CTF,  12,      0.61628109E-08,      0.82408312E-13,      0.30119814E-07,     -0.40115853E-10
 CTF,  11,     -0.77383225E-06,      0.25293419E-10,     -0.27731446E-05,      0.56677743E-08
 CTF,  10,      0.54768870E-04,      0.26332392E-08,      0.14956410E-03,     -0.45120214E-06
 CTF,   9,     -0.22650350E-02,      0.11534453E-06,     -0.48087993E-02,      0.21020628E-04
 CTF,   8,      0.55163056E-01,      0.22033490E-05,      0.93037694E-01,     -0.58077627E-03
 CTF,   7,     -0.78873476    ,      0.18638840E-04,      -1.0942294    ,      0.95427399E-02
 CTF,   6,       6.6758382    ,      0.69409822E-04,       7.9083821    ,     -0.93661606E-01
 CTF,   5,      -33.955422    ,      0.11008252E-03,      -35.599508    ,      0.55172076    
 CTF,   4,       105.08713    ,      0.68977536E-04,       100.61661    ,      -1.9692857    
 CTF,   3,      -197.56831    ,      0.14673874E-04,      -177.05810    ,       4.2461312    
 CTF,   2,       218.91981    ,      0.76807215E-06,       186.92578    ,      -5.3562042    
 CTF,   1,      -130.78018    ,      0.44396642E-08,      -107.76587    ,       3.6115544    
 CTF,   0,       32.357203    ,     -0.35827059E-10,       25.978853    
 Construction CTF,44,  46,   4,  13,   0.250,     0.3735    ,   0.900,   0.900,   0.500,   0.700,Rough
 Material CTF Summary,17_4_66,  0.0130,         0.400,   1000.000,     1000.000,  0.3250E-01
 Material CTF Summary,17_3_11,  0.1000,         0.510,   1400.000,     1000.000,  0.1961    
 Material CTF Summary,17_2_103,  0.0792,         0.034,     35.000,     1400.000,   2.329    
 Material CTF Summary,17_1_5,  0.1000,         0.840,   1700.000,      800.000,  0.1190    
 CTF,  13,     -0.18447637E-09,     -0.58401041E-14,     -0.25343945E-10,      0.14592292E-12
 CTF,  12,      0.30119814E-07,      0.82408312E-13,      0.61628109E-08,     -0.40115853E-10
 CTF,  11,     -0.27731446E-05,      0.25293419E-10,     -0.77383225E-06,      0.56677743E-08
 CTF,  10,      0.14956410E-03,      0.26332392E-08,      0.54768870E-04,     -0.45120214E-06
 CTF,   9,     -0.48087993E-02,      0.11534453E-06,     -0.22650350E-02,      0.21020628E-04
 CTF,   8,      0.93037694E-01,      0.22033490E-05,      0.55163056E-01,     -0.58077627E-03
 CTF,   7,      -1.0942294    ,      0.18638840E-04,     -0.78873476    ,      0.95427399E-02
 CTF,   6,       7.9083821    ,      0.69409822E-04,       6.6758382    ,     -0.93661606E-01
[...]
HeatTransfer_Surface,5642_WALL_3_0_0_0_0_0_WIN,Window,5642_WALL_3_0_0,Window5 Detailed Fenestration,,N/A,5.894,No,0.54,0.54,0.54,4.52E-008,90.00,0.38,1.43,0.13,ExternalEnvironment,DOE-2,ASHRAETARP,SunExposed,WindExposed,0.50,0.50,0.66,0.34,4
Frame/Divider_Surface,2,Frame,5642_WALL_3_0_0_0_0_0_WIN,Window5 Detailed Fenestration,,,,,0.13,0.13,*,N/A,N/A,3.50E-002,N/A
HeatTransfer_Surface,5642_WALL_3_0_0_1_0_1_WIN,Window,5642_WALL_3_0_0,Window5 Detailed Fenestration,,N/A,5.894,No,0.54,0.54,0.54,4.55E-008,90.00,0.38,1.43,0.13,ExternalEnvironment,DOE-2,ASHRAETARP,SunExposed,WindExposed,0.50,0.50,0.67,0.33,4
Frame/Divider_Surface,2,Frame,5642_WALL_3_0_0_1_0_1_WIN,Window5 Detailed Fenestration,,,,,0.13,0.13,*,N/A,N/A,3.50E-002,N/A
HeatTransfer_Surface,5642_WALL_3_0_0_2_0_2_WIN,Window,5642_WALL_3_0_0,Window5 Detailed Fenestration,,N/A,5.894,No,0.55,0.55,0.55,4.48E-008,90.00,0.38,1.43,0.13,ExternalEnvironment,DOE-2,ASHRAETARP,SunExposed,WindExposed,0.50,0.50,0.66,0.34,4
Frame/Divider_Surface,2,Frame,5642_WALL_3_0_0_2_0_2_WIN,Window5 Detailed Fenestration,,,,,0.13,0.13,*,N/A,N/A,3.50E-002,N/A
HeatTransfer_Surface,5642_PARTITION_6_0_0,Wall,,CTF - ConductionTransferFunction,,3.204,2.166,,10.65,10.65,10.65,270.00,90.00,3.55,3.00,0.00,5668_PARTITION_2_0_10045,Other/Same Surface Int Conv,ASHRAETARP,NoSun,NoWind,0.00,0.50,0.50,0.50,4
HeatTransfer_Surface,5642_PARTITION_7_0_0,Wall,,CTF - ConductionTransferFunction,,3.204,2.166,,2.04,2.04,2.04,359.30,90.00,0.68,3.00,0.00,5668_PARTITION_7_0_10046,Other/Same Surface Int Conv,ASHRAETARP,NoSun,NoWind,0.00,0.50,0.50,0.50,4
HeatTransfer_Surface,5642_PARTITION_8_0_0,Wall,,CTF - ConductionTransferFunction,,0.374,0.354,,3.01,4.50,3.01,270.00,90.00,1.50,3.00,0.00,5661_PARTITION_2_0_10047,Other/Same Surface Int Conv,ASHRAETARP,NoSun,NoWind,0.00,0.50,0.50,0.50,4
HeatTransfer_Surface,5642_PARTITION_8_0_0_0_0_0_DOOR,Door,5642_PARTITION_8_0_0,CTF - ConductionTransferFunction,,5.429,5.429,,1.49,1.49,1.49,270.00,90.00,0.80,1.87,0.00,5661_PARTITION_2_0_0_0_0_0_DOOR_10049,Other/Same Surface Int Conv,ASHRAETARP,NoSun,NoWind,0.00,0.50,0.50,0.50,4
HeatTransfer_Surface,5642_FLOOR_0_0_0,Floor,,CTF - ConductionTransferFunction,,0.374,0.342,,1.02,1.02,1.02,0.00,180.00,0.68,1.51,0.00,6122_CEILING_1_0_10042,Other/Same Surface Int Conv,ASHRAETARP,NoSun,NoWind,0.00,0.00,1.00,0.00,4
HeatTransfer_Surface,5642_FLOOR_0_0_1,Floor,,CTF - ConductionTransferFunction,,0.374,0.342,,3.14,3.14,3.14,6.47E-008,180.00,0.62,5.06,0.00,6122_CEILING_1_0_10043,Other/Same Surface Int Conv,ASHRAETARP,NoSun,NoWind,0.00,0.00,1.00,0.00,4
HeatTransfer_Surface,5642_FLOOR_0_0_2,Floor,,CTF - ConductionTransferFunction,,0.374,0.342,,36.00,36.00,36.00,6.02E-008,180.00,4.00,9.00,0.00,6122_CEILING_1_0_10044,Other/Same Surface Int Conv,ASHRAETARP,NoSun,NoWind,0.00,0.00,1.00,0.00,4
HeatTransfer_Surface,5642_CEILING_1_0_10021,Roof,,CTF - ConductionTransferFunction,,2.966,1.903,,1.02,1.02,1.02,180.00,0.00,0.68,1.50,0.00,4793_FLOOR_10_0_0,Other/Same Surface Int Conv,ASHRAETARP,NoSun,NoWind,0.00,1.00,0.00,1.00,4
HeatTransfer_Surface,5642_CEILING_1_0_10022,Roof,,CTF - ConductionTransferFunction,,2.966,1.903,,3.14,3.14,3.14,180.00,0.00,0.62,5.06,0.00,4793_FLOOR_10_0_1,Other/Same Surface Int Conv,ASHRAETARP,NoSun,NoWind,0.00,1.00,0.00,1.00,4
HeatTransfer_Surface,5642_CEILING_1_0_10023,Roof,,CTF - ConductionTransferFunction,,2.966,1.903,,36.00,36.00,36.00,180.00,0.00,4.00,9.00,0.00,4793_FLOOR_10_0_2,Other/Same Surface Int Conv,ASHRAETARP,NoSun,NoWind,0.00,1.00,0.00,1.00,4
Zone_Surfaces,5654,    6
HeatTransfer_Surface,5654_PARTITION_5_0_10033,Wall,,CTF - ConductionTransferFunction,,3.366,2.238,,4.20,4.20,4.20,180.00,90.00,1.40,3.00,0.00,5618_PARTITION_5_0_0,Other/Same Surface Int Conv,ASHRAETARP,NoSun,NoWind,0.00,0.50,0.50,0.50,4
HeatTransfer_Surface,5654_PARTITION_2_0_0,Wall,,CTF - ConductionTransferFunction,,4.480,2.682,,4.47,4.47,4.47,90.00,90.00,1.49,3.00,0.00,5661_PARTITION_4_0_10050,Other/Same Surface Int Conv,ASHRAETARP,NoSun,NoWind,0.00,0.50,0.50,0.50,4
HeatTransfer_Surface,5654_PARTITION_3_0_0,Wall,,CTF - ConductionTransferFunction,,3.366,2.238,,4.20,4.20,4.20,6.37E-006,90.00,1.40,3.00,0.00,5668_PARTITION_5_0_10051,Other/Same Surface Int Conv,ASHRAETARP,NoSun,NoWind,0.00,0.50,0.50,0.50,4
HeatTransfer_Surface,5654_WALL_4_0_0,Wall,,CTF - ConductionTransferFunction,,3.891,2.459,,4.47,4.47,4.47,270.00,90.00,1.49,3.00,0.00,ExternalEnvironment,DOE-2,ASHRAETARP,SunExposed,WindExposed,0.50,0.50,0.50,0.50,4
HeatTransfer_Surface,5654_FLOOR_0_0_0,Floor,,CTF - ConductionTransferFunction,,2.984,1.730,,2.08,2.08,2.08,0.00,180.00,1.40,1.49,0.00,6122_CEILING_1_0_10049,Other/Same Surface Int Conv,ASHRAETARP,NoSun,NoWind,0.00,0.00,1.00,0.00,4
HeatTransfer_Surface,5654_CEILING_1_0_10013,Roof,,CTF - ConductionTransferFunction,,3.124,1.966,,2.08,2.08,2.08,180.00,0.00,1.40,1.49,0.00,4786_FLOOR_4_0_0,Other/Same Surface Int Conv,ASHRAETARP,NoSun,NoWind,0.00,1.00,0.00,1.00,4
Zone_Surfaces,5661,    7
HeatTransfer_Surface,5661_PARTITION_5_0_10032,Wall,,CTF - ConductionTransferFunction,,3.366,2.238,,3.90,3.90,3.90,180.00,90.00,1.30,3.00,0.00,5618_PARTITION_4_0_0,Other/Same Surface Int Conv,ASHRAETARP,NoSun,NoWind,0.00,0.50,0.50,0.50,4
HeatTransfer_Surface,5661_PARTITION_2_0_10047,Wall,,CTF - ConductionTransferFunction,,0.374,0.354,,3.01,4.50,3.01,90.00,90.00,1.50,3.00,0.00,5642_PARTITION_8_0_0,Other/Same Surface Int Conv,ASHRAETARP,NoSun,NoWind,0.00,0.50,0.50,0.50,4
HeatTransfer_Surface,5661_PARTITION_2_0_0_0_0_0_DOOR_10049,Door,5661_PARTITION_2_0_10047,CTF - ConductionTransferFunction,,5.429,5.429,,1.49,1.49,1.49,90.00,90.00,0.80,1.87,0.00,5642_PARTITION_8_0_0_0_0_0_DOOR,Other/Same Surface Int Conv,ASHRAETARP,NoSun,NoWind,0.00,0.50,0.50,0.50,4
HeatTransfer_Surface,5661_PARTITION_4_0_10050,Wall,,CTF - ConductionTransferFunction,,4.480,2.682,,4.47,4.47,4.47,270.00,90.00,1.49,3.00,0.00,5654_PARTITION_2_0_0,Other/Same Surface Int Conv,ASHRAETARP,NoSun,NoWind,0.00,0.50,0.50,0.50,4
HeatTransfer_Surface,5661_PARTITION_3_0_0,Wall,,CTF - ConductionTransferFunction,,3.366,2.238,,3.90,3.90,3.90,359.49,90.00,1.30,3.00,0.00,5668_PARTITION_6_0_10053,Other/Same Surface Int Conv,ASHRAETARP,NoSun,NoWind,0.00,0.50,0.50,0.50,4
HeatTransfer_Surface,5661_FLOOR_0_0_0,Floor,,CTF - ConductionTransferFunction,,2.984,1.730,,1.94,1.94,1.94,0.00,180.00,1.30,1.50,0.00,6122_CEILING_1_0_10052,Other/Same Surface Int Conv,ASHRAETARP,NoSun,NoWind,0.00,0.00,1.00,0.00,4
HeatTransfer_Surface,5661_CEILING_1_0_10011,Roof,,CTF - ConductionTransferFunction,,3.124,1.966,,1.94,1.94,1.94,180.00,0.00,1.30,1.49,0.00,4779_FLOOR_5_0_0,Other/Same Surface Int Conv,ASHRAETARP,NoSun,NoWind,0.00,1.00,0.00,1.00,4
Zone_Surfaces,5668,    8
HeatTransfer_Surface,5668_PARTITION_3_0_10040,Wall,,CTF - ConductionTransferFunction,,3.366,2.238,,10.14,10.14,10.14,359.64,90.00,3.38,3.00,0.00,5634_PARTITION_5_0_0,Other/Same Surface Int Conv,ASHRAETARP,NoSun,NoWind,0.00,0.50,0.50,0.50,4
HeatTransfer_Surface,5668_PARTITION_2_0_10045,Wall,,CTF - ConductionTransferFunction,,3.204,2.166,,10.65,10.65,10.65,90.00,90.00,3.55,3.00,0.00,5642_PARTITION_6_0_0,Other/Same Surface Int Conv,ASHRAETARP,NoSun,NoWind,0.00,0.50,0.50,0.50,4
HeatTransfer_Surface,5668_PARTITION_7_0_10046,Wall,,CTF - ConductionTransferFunction,,3.204,2.166,,2.04,2.04,2.04,179.30,90.00,0.68,3.00,0.00,5642_PARTITION_7_0_0,Other/Same Surface Int Conv,ASHRAETARP,NoSun,NoWind,0.00,0.50,0.50,0.50,4
HeatTransfer_Surface,5668_PARTITION_5_0_10051,Wall,,CTF - ConductionTransferFunction,,3.366,2.238,,4.20,4.20,4.20,180.00,90.00,1.40,3.00,0.00,5654_PARTITION_3_0_0,Other/Same Surface Int Conv,ASHRAETARP,NoSun,NoWind,0.00,0.50,0.50,0.50,4
HeatTransfer_Surface,5668_PARTITION_6_0_10053,Wall,,CTF - ConductionTransferFunction,,3.366,2.238,,3.90,3.90,3.90,179.49,90.00,1.30,3.00,0.00,5661_PARTITION_3_0_0,Other/Same Surface Int Conv,ASHRAETARP,NoSun,NoWind,0.00,0.50,0.50,0.50,4
HeatTransfer_Surface,5668_WALL_4_0_0,Wall,,CTF - ConductionTransferFunction,,3.676,2.371,,10.65,10.65,10.65,270.00,90.00,3.55,3.00,0.00,ExternalEnvironment,DOE-2,ASHRAETARP,SunExposed,WindExposed,0.50,0.50,0.50,0.50,4
HeatTransfer_Surface,5668_FLOOR_0_0_0,Floor,,CTF - ConductionTransferFunction,,14.000,3.180,,12.01,12.01,12.01,359.42,180.00,3.47,3.47,0.00,6114_CEILING_1_0_10054,Other/Same Surface Int Conv,ASHRAETARP,NoSun,NoWind,0.00,0.00,1.00,0.00,5
HeatTransfer_Surface,5668_CEILING_1_0_10004,Roof,,CTF - ConductionTransferFunction,,14.000,3.848,,12.01,12.01,12.01,180.00,0.00,3.47,3.47,0.00,4767_FLOOR_8_0_0,Other/Same Surface Int Conv,ASHRAETARP,NoSun,NoWind,0.00,1.00,0.00,1.00,5
Zone_Surfaces,6114,    8
HeatTransfer_Surface,6114_PARTITION_2_0_0,Wall,,CTF - ConductionTransferFunction,,3.949,2.482,,5.54,5.54,5.54,179.42,90.00,1.98,2.80,0.00,6122_PARTITION_7_0_10055,Other/Same Surface Int Conv,ASHRAETARP,NoSun,NoWind,0.00,0.50,0.50,0.50,4
HeatTransfer_Surface,6114_PARTITION_3_0_0,Wall,,CTF - ConductionTransferFunction,,3.949,2.482,,2.15,9.94,2.15,90.00,90.00,3.55,2.80,0.00,6122_PARTITION_6_0_10056,Other/Same Surface Int Conv,ASHRAETARP,NoSun,NoWind,0.00,0.50,0.50,0.50,4
HeatTransfer_Surface,6114_PARTITION_3_0_0_0_0_0_HOLE,Window,6114_PARTITION_3_0_0,Window5 Detailed Fenestration,,N/A,3.124,No,7.79,7.79,7.79,90.00,90.00,3.25,2.39,0.00,6122_PARTITION_6_0_0_0_0_0_HOLE_10058,Other/Same Surface Int Conv,ASHRAETARP,NoSun,NoWind,0.50,0.50,0.50,0.50,4
HeatTransfer_Surface,6114_PARTITION_4_0_0,Wall,,CTF - ConductionTransferFunction,,3.949,2.482,,9.46,9.46,9.46,359.64,90.00,3.38,2.80,0.00,6122_PARTITION_5_0_10058,Other/Same Surface Int Conv,ASHRAETARP,NoSun,NoWind,0.00,0.50,0.50,0.50,4
HeatTransfer_Surface,6114_WALL_5_0_0,Wall,,CTF - ConductionTransferFunction,,3.676,2.371,,9.94,9.94,9.94,270.00,90.00,3.55,2.80,0.00,ExternalEnvironment,DOE-2,ASHRAETARP,SunExposed,WindExposed,0.50,0.50,0.50,0.50,4
HeatTransfer_Surface,6114_PARTITION_6_0_0,Wall,,CTF - ConductionTransferFunction,,3.949,2.482,,3.92,3.92,3.92,180.00,90.00,1.40,2.80,0.00,6122_PARTITION_8_0_10059,Other/Same Surface Int Conv,ASHRAETARP,NoSun,NoWind,0.00,0.50,0.50,0.50,4
HeatTransfer_Surface,6114_GROUNDFLOOR_0_0_0,Floor,,CTF - ConductionTransferFunction,,0.336,0.311,,12.01,12.01,12.01,359.42,180.00,3.47,3.47,0.00,Ground,N/A-Ground,ASHRAETARP,NoSun,NoWind,1.00,0.00,1.00,0.00,5
HeatTransfer_Surface,6114_CEILING_1_0_10054,Roof,,CTF - ConductionTransferFunction,,14.000,3.848,,12.01,12.01,12.01,180.00,0.00,3.47,3.47,0.00,5668_FLOOR_0_0_0,Other/Same Surface Int Conv,ASHRAETARP,NoSun,NoWind,0.00,1.00,0.00,1.00,5
Zone_Surfaces,6122,   24
HeatTransfer_Surface,6122_PARTITION_7_0_10055,Wall,,CTF - ConductionTransferFunction,,3.949,2.482,,5.54,5.54,5.54,359.42,90.00,1.98,2.80,0.00,6114_PARTITION_2_0_0,Other/Same Surface Int Conv,ASHRAETARP,NoSun,NoWind,0.00,0.50,0.50,0.50,4
HeatTransfer_Surface,6122_PARTITION_6_0_10056,Wall,,CTF - ConductionTransferFunction,,3.949,2.482,,2.15,9.94,2.15,270.00,90.00,3.55,2.80,0.00,6114_PARTITION_3_0_0,Other/Same Surface Int Conv,ASHRAETARP,NoSun,NoWind,0.00,0.50,0.50,0.50,4
HeatTransfer_Surface,6122_PARTITION_6_0_0_0_0_0_HOLE_10058,Window,6122_PARTITION_6_0_10056,Window5 Detailed Fenestration,,N/A,3.124,No,7.79,7.79,7.79,270.00,90.00,3.25,2.39,0.00,6114_PARTITION_3_0_0_0_0_0_HOLE,Other/Same Surface Int Conv,ASHRAETARP,NoSun,NoWind,0.50,0.50,0.50,0.50,4
HeatTransfer_Surface,6122_PARTITION_5_0_10058,Wall,,CTF - ConductionTransferFunction,,3.949,2.482,,9.46,9.46,9.46,179.64,90.00,3.38,2.80,0.00,6114_PARTITION_4_0_0,Other/Same Surface Int Conv,ASHRAETARP,NoSun,NoWind,0.00,0.50,0.50,0.50,4
HeatTransfer_Surface,6122_PARTITION_8_0_10059,Wall,,CTF - ConductionTransferFunction,,3.949,2.482,,3.92,3.92,3.92,6.37E-006,90.00,1.40,2.80,0.00,6114_PARTITION_6_0_0,Other/Same Surface Int Conv,ASHRAETARP,NoSun,NoWind,0.00,0.50,0.50,0.50,4
HeatTransfer_Surface,6122_WALL_2_0_0,Wall,,CTF - ConductionTransferFunction,,3.676,2.371,,33.60,33.60,33.60,90.00,90.00,12.00,2.80,0.00,ExternalEnvironment,DOE-2,ASHRAETARP,SunExposed,WindExposed,0.50,0.50,0.50,0.50,4
HeatTransfer_Surface,6122_WALL_3_0_0,Wall,,CTF - ConductionTransferFunction,,3.581,2.331,,15.73,22.40,15.73,3.87E-008,90.00,8.00,2.80,0.00,ExternalEnvironment,DOE-2,ASHRAETARP,SunExposed,WindExposed,0.50,0.50,0.50,0.50,4
HeatTransfer_Surface,6122_WALL_3_0_0_0_0_0_DOOR,Door,6122_WALL_3_0_0,CTF - ConductionTransferFunction,,360.000,360.000,,4.63,4.63,4.63,3.89E-008,90.00,2.50,1.85,0.00,ExternalEnvironment,DOE-2,ASHRAETARP,SunExposed,WindExposed,0.50,0.50,0.50,0.50,4
HeatTransfer_Surface,6122_WALL_3_0_0_1_0_1_DOOR,Door,6122_WALL_3_0_0,CTF - ConductionTransferFunction,,360.000,360.000,,2.04,2.04,2.04,3.63E-008,90.00,1.10,1.85,0.00,ExternalEnvironment,DOE-2,ASHRAETARP,SunExposed,WindExposed,0.50,0.50,0.50,0.50,4
HeatTransfer_Surface,6122_WALL_4_0_0,Wall,,CTF - ConductionTransferFunction,,3.676,2.371,,11.09,11.09,11.09,270.00,90.00,3.96,2.80,0.00,ExternalEnvironment,DOE-2,ASHRAETARP,SunExposed,WindExposed,0.50,0.50,0.50,0.50,4
HeatTransfer_Surface,6122_WALL_9_0_0,Wall,,CTF - ConductionTransferFunction,,3.676,2.371,,12.57,12.57,12.57,270.00,90.00,4.49,2.80,0.00,ExternalEnvironment,DOE-2,ASHRAETARP,SunExposed,WindExposed,0.50,0.50,0.50,0.50,4
HeatTransfer_Surface,6122_WALL_10_0_0,Wall,,CTF - ConductionTransferFunction,,3.581,2.331,,4.22,22.40,4.22,180.00,90.00,8.00,2.80,0.00,ExternalEnvironment,DOE-2,ASHRAETARP,SunExposed,WindExposed,0.50,0.50,0.50,0.50,4
HeatTransfer_Surface,6122_WALL_10_0_0_0_0_0_HOLE,Window,6122_WALL_10_0_0,Window5 Detailed Fenestration,,N/A,3.124,No,18.18,18.18,18.18,180.00,90.00,7.60,2.39,0.00,ExternalEnvironment,DOE-2,ASHRAETARP,SunExposed,WindExposed,0.50,0.50,0.50,0.50,4
HeatTransfer_Surface,6122_GROUNDFLOOR_0_0_1,Floor,,CTF - ConductionTransferFunction,,0.336,0.311,,15.18,15.18,15.18,6.78E-009,180.00,3.38,4.51,0.00,Ground,N/A-Ground,ASHRAETARP,NoSun,NoWind,1.00,0.00,1.00,0.00,4
HeatTransfer_Surface,6122_GROUNDFLOOR_0_0_2,Floor,,CTF - ConductionTransferFunction,,0.336,0.311,,37.30,37.30,37.30,4.84E-008,180.00,4.62,8.09,0.00,Ground,N/A-Ground,ASHRAETARP,NoSun,NoWind,1.00,0.00,1.00,0.00,4
HeatTransfer_Surface,6122_GROUNDFLOOR_0_0_3,Floor,,CTF - ConductionTransferFunction,,0.336,0.311,,31.50,31.50,31.50,359.64,180.00,8.00,3.91,0.00,Ground,N/A-Ground,ASHRAETARP,NoSun,NoWind,1.00,0.00,1.00,0.00,4
HeatTransfer_Surface,6122_CEILING_1_0_10028,Roof,,CTF - ConductionTransferFunction,,0.374,0.349,,12.00,12.00,12.00,180.00,0.00,4.00,3.00,0.00,5618_FLOOR_0_0_0,Other/Same Surface Int Conv,ASHRAETARP,NoSun,NoWind,0.00,1.00,0.00,1.00,4
HeatTransfer_Surface,6122_CEILING_1_0_10034,Roof,,CTF - ConductionTransferFunction,,0.374,0.349,,12.00,12.00,12.00,180.00,0.00,4.00,3.00,0.00,5627_FLOOR_0_0_0,Other/Same Surface Int Conv,ASHRAETARP,NoSun,NoWind,0.00,1.00,0.00,1.00,4
HeatTransfer_Surface,6122_CEILING_1_0_10037,Roof,,CTF - ConductionTransferFunction,,0.374,0.349,,15.80,15.80,15.80,179.64,0.00,4.00,3.96,0.00,5634_FLOOR_0_0_0,Other/Same Surface Int Conv,ASHRAETARP,NoSun,NoWind,0.00,1.00,0.00,1.00,4
HeatTransfer_Surface,6122_CEILING_1_0_10042,Roof,,CTF - ConductionTransferFunction,,0.374,0.349,,1.02,1.02,1.02,180.00,0.00,0.68,1.50,0.00,5642_FLOOR_0_0_0,Other/Same Surface Int Conv,ASHRAETARP,NoSun,NoWind,0.00,1.00,0.00,1.00,4
HeatTransfer_Surface,6122_CEILING_1_0_10043,Roof,,CTF - ConductionTransferFunction,,0.374,0.349,,3.14,3.14,3.14,180.00,0.00,0.62,5.06,0.00,5642_FLOOR_0_0_1,Other/Same Surface Int Conv,ASHRAETARP,NoSun,NoWind,0.00,1.00,0.00,1.00,4
HeatTransfer_Surface,6122_CEILING_1_0_10044,Roof,,CTF - ConductionTransferFunction,,0.374,0.349,,36.00,36.00,36.00,180.00,0.00,4.00,9.00,0.00,5642_FLOOR_0_0_2,Other/Same Surface Int Conv,ASHRAETARP,NoSun,NoWind,0.00,1.00,0.00,1.00,4
HeatTransfer_Surface,6122_CEILING_1_0_10049,Roof,,CTF - ConductionTransferFunction,,2.984,1.910,,2.08,2.08,2.08,180.00,0.00,1.40,1.49,0.00,5654_FLOOR_0_0_0,Other/Same Surface Int Conv,ASHRAETARP,NoSun,NoWind,0.00,1.00,0.00,1.00,4
HeatTransfer_Surface,6122_CEILING_1_0_10052,Roof,,CTF - ConductionTransferFunction,,2.984,1.910,,1.94,1.94,1.94,180.00,0.00,1.30,1.49,0.00,5661_FLOOR_0_0_0,Other/Same Surface Int Conv,ASHRAETARP,NoSun,NoWind,0.00,1.00,0.00,1.00,4
! <Environment>,Environment Name,Environment Type, Start Date, End Date, Start DayOfWeek, Duration {#days}, Source:Start DayOfWeek,  Use Daylight Saving, Use Holidays, Apply Weekend Holiday Rule,  Use Rain Values, Use Snow Values
! <Environment:Special Days>, Special Day Name, Special Day Type, Source, Start Date, Duration {#days}
! <Environment:Daylight Saving>, Daylight Saving Indicator, Source, Start Date, End Date
! <Environment:WarmupDays>, NumberofWarmupDays
Environment,CASESTUDY-THESIS,WeatherFileRunPeriod,01/01,12/31,Saturday,365,Use RunPeriod Specified Day,Yes,No,Yes,Yes,Yes
Environment:Daylight Saving,No,
Environment:WarmupDays,  7
! <Warmup Convergence Information>,Zone Name,Environment Type/Name,Average Warmup Temperature Difference {deltaC},Std Dev Warmup Temperature Difference {deltaC},Max Temperature Pass/Fail Convergence,Min Temperature Pass/Fail Convergence,Average Warmup Load Difference {W},Std Dev Warmup Load Difference {W},Heating Load Pass/Fail Convergence,Cooling Load Pass/Fail Convergence
 Warmup Convergence Information,4767,RunPeriod: CASESTUDY-THESIS,7.4910513010E-002,4.8328804888E-002,Pass,Pass,0.0000000000,0.0000000000,Pass,Pass
 Warmup Convergence Information,4779,RunPeriod: CASESTUDY-THESIS,5.0254323694E-002,6.5833345561E-002,Pass,Pass,0.0000000000,0.0000000000,Pass,Pass
 Warmup Convergence Information,4786,RunPeriod: CASESTUDY-THESIS,3.1498685704E-002,1.7854981126E-002,Pass,Pass,0.0000000000,0.0000000000,Pass,Pass
 Warmup Convergence Information,4793,RunPeriod: CASESTUDY-THESIS,1.2105131712E-013,9.7691880933E-014,Pass,Pass,1.4927883001E-002,1.7530122899E-002,Pass,Pass
 Warmup Convergence Information,4805,RunPeriod: CASESTUDY-THESIS,0.5203951491,1.1774114981,Pass,Pass,0.0000000000,0.0000000000,Pass,Pass
 Warmup Convergence Information,4813,RunPeriod: CASESTUDY-THESIS,1.2712053632E-013,1.0765318839E-013,Pass,Pass,1.5622810521E-002,1.1432048709E-002,Pass,Pass
 Warmup Convergence Information,4820,RunPeriod: CASESTUDY-THESIS,1.2290168883E-013,1.1192290779E-013,Pass,Pass,1.4882851370E-002,1.0637892999E-002,Pass,Pass
 Warmup Convergence Information,5618,RunPeriod: CASESTUDY-THESIS,1.0054919860E-013,9.4734571645E-014,Pass,Pass,1.3088508808E-002,1.2612171999E-002,Pass,Pass
 Warmup Convergence Information,5627,RunPeriod: CASESTUDY-THESIS,1.0080825064E-013,1.0825124263E-013,Pass,Pass,1.5641187140E-002,1.4296485657E-002,Pass,Pass
 Warmup Convergence Information,5634,RunPeriod: CASESTUDY-THESIS,0.5180094980,1.2241978895,Pass,Pass,0.0000000000,0.0000000000,Pass,Pass
 Warmup Convergence Information,5642,RunPeriod: CASESTUDY-THESIS,9.3628808410E-014,8.4210024062E-014,Pass,Pass,1.4762776973E-002,2.6289827683E-002,Pass,Pass
 Warmup Convergence Information,5654,RunPeriod: CASESTUDY-THESIS,2.4118441999E-002,1.4829824896E-002,Pass,Pass,0.0000000000,0.0000000000,Pass,Pass
 Warmup Convergence Information,5661,RunPeriod: CASESTUDY-THESIS,4.5108699972E-002,7.1642499707E-002,Pass,Pass,0.0000000000,0.0000000000,Pass,Pass
 Warmup Convergence Information,5668,RunPeriod: CASESTUDY-THESIS,2.7730589647E-002,2.0925600248E-002,Pass,Pass,0.0000000000,0.0000000000,Pass,Pass
 Warmup Convergence Information,6114,RunPeriod: CASESTUDY-THESIS,6.1360701114E-002,3.2810397475E-002,Pass,Pass,0.0000000000,0.0000000000,Pass,Pass
 Warmup Convergence Information,6122,RunPeriod: CASESTUDY-THESIS,0.1555080700,0.1238715748,Pass,Pass,0.0000000000,0.0000000000,Pass,Pass
! <Program Control Information:Threads/Parallel Sims>, Threading Supported,Maximum Number of Threads, Env Set Threads (OMP_NUM_THREADS), EP Env Set Threads (EP_OMP_NUM_THREADS), IDF Set Threads, Number of Threads Used (Interior Radiant Exchange), Number Nominal Surfaces, Number Parallel Sims
Program Control:Threads/Parallel Sims, No,1, N/A, N/A, N/A, N/A, N/A, N/A
End of Data
