  0
SECTION
  2
ENTITIES
999
DXF created from EnergyPlus
999
Program Version,EnergyPlus, Version 8.3.0-6d97d074ea, YMD=2020.01.15 06:28
999
Polygon Action,TRIANGULATE3DFACE
999
Color Scheme,Default
999
Text - True North
  0
TEXT
  8
1
  6
Continuous
 62
  3
 10
      -16.13081
 20
       -2.98455
 30
        0.10000
 40
 .25
  1
True North
 41
 0.0
  7
MONOTXT
210
0.0
220
0.0
230
1.0
999
Text - Building Title
  0
TEXT
  8
1
  6
Continuous
 62
  3
 10
      -19.13081
 20
       -6.98455
 30
        0.10000
 40
 .4
  1
Building - Building
 41
 0.0
  7
MONOTXT
210
0.0
220
0.0
230
1.0
999
North Arrow Stem
  0
3DFACE
  8
1
 62
  3
 10
      -15.13081
 20
       -2.98455
 30
        0.10000
 11
      -15.13081
 21
       -2.98455
 31
        0.00000
 12
      -15.13081
 22
       -5.98455
 32
        0.00000
 13
      -15.13081
 23
       -5.98455
 33
        0.10000
999
North Arrow Head 1
  0
3DFACE
  8
1
 62
  3
 10
      -15.13081
 20
       -2.98455
 30
        0.10000
 11
      -15.13081
 21
       -2.98455
 31
        0.00000
 12
      -15.63081
 22
       -3.85057
 32
        0.00000
 13
      -15.63081
 23
       -3.85057
 33
        0.10000
999
North Arrow Head 2
  0
3DFACE
  8
1
 62
  3
 10
      -15.13081
 20
       -2.98455
 30
        0.10000
 11
      -15.13081
 21
       -2.98455
 31
        0.00000
 12
      -14.63081
 22
       -3.85057
 32
        0.00000
 13
      -14.63081
 23
       -3.85057
 33
        0.10000
999
North Arrow Side 1
  0
3DFACE
  8
1
 62
  3
 10
      -15.63081
 20
       -1.48455
 30
        0.10000
 11
      -15.63081
 21
       -1.48455
 31
        0.00000
 12
      -15.63081
 22
       -2.48455
 32
        0.00000
 13
      -15.63081
 23
       -2.48455
 33
        0.10000
999
North Arrow Side 2
  0
3DFACE
  8
1
 62
  3
 10
      -15.63081
 20
       -1.48455
 30
        0.10000
 11
      -15.63081
 21
       -1.48455
 31
        0.00000
 12
      -14.63081
 22
       -2.48455
 32
        0.00000
 13
      -14.63081
 23
       -2.48455
 33
        0.10000
999
North Arrow Side 3
  0
3DFACE
  8
1
 62
  3
 10
      -14.63081
 20
       -1.48455
 30
        0.10000
 11
      -14.63081
 21
       -1.48455
 31
        0.00000
 12
      -14.63081
 22
       -2.48455
 32
        0.00000
 13
      -14.63081
 23
       -2.48455
 33
        0.10000
999
Zone Names
999
Zone=1:4767
999
Zone=2:4779
999
Zone=3:4786
999
Zone=4:4793
999
Zone=5:4805
999
Zone=6:4813
999
Zone=7:4820
999
Zone=8:5618
999
Zone=9:5627
999
Zone=10:5634
999
Zone=11:5642
999
Zone=12:5654
999
Zone=13:5661
999
Zone=14:5668
999
Zone=15:6114
999
Zone=16:6122
999
Building Shading:BUILDING 1 - COMPONENT BLOCK 3 - SURFACE 1 (1)
  0
3DFACE
  8
Building Shading
 62
195
 10
       -5.13080
 20
        6.01545
 30
        8.80000
 11
       -5.13080
 21
        6.01545
 31
        8.58638
 12
        2.86920
 22
        6.01545
 32
        8.58638
 13
        2.86920
 23
        6.01545
 33
        8.80000
999
Building Shading:Mir-BUILDING 1 - COMPONENT BLOCK 3 - SURFACE 1 (1)
  0
3DFACE
  8
Building Shading
 62
195
 10
        2.86920
 20
        6.01545
 30
        8.80000
 11
        2.86920
 21
        6.01545
 31
        8.58638
 12
       -5.13080
 22
        6.01545
 32
        8.58638
 13
       -5.13080
 23
        6.01545
 33
        8.80000
999
Building Shading:BUILDING 1 - COMPONENT BLOCK 3 - SURFACE 2 (2)
  0
3DFACE
  8
Building Shading
 62
195
 10
        2.86920
 20
        6.51545
 30
        8.80000
 11
        2.86920
 21
        6.51545
 31
        8.58638
 12
       -5.13080
 22
        6.51545
 32
        8.58638
 13
       -5.13080
 23
        6.51545
 33
        8.80000
999
Building Shading:Mir-BUILDING 1 - COMPONENT BLOCK 3 - SURFACE 2 (2)
  0
3DFACE
  8
Building Shading
 62
195
 10
       -5.13080
 20
        6.51545
 30
        8.80000
 11
       -5.13080
 21
        6.51545
 31
        8.58638
 12
        2.86920
 22
        6.51545
 32
        8.58638
 13
        2.86920
 23
        6.51545
 33
        8.80000
999
Building Shading:BUILDING 1 - COMPONENT BLOCK 3 - SURFACE 3 (3)
  0
3DFACE
  8
Building Shading
 62
195
 10
       -5.13080
 20
        6.51545
 30
        8.80000
 11
       -5.13080
 21
        6.01545
 31
        8.80000
 12
        2.86920
 22
        6.01545
 32
        8.80000
 13
        2.86920
 23
        6.51545
 33
        8.80000
999
Building Shading:Mir-BUILDING 1 - COMPONENT BLOCK 3 - SURFACE 3 (3)
  0
3DFACE
  8
Building Shading
 62
195
 10
        2.86920
 20
        6.51545
 30
        8.80000
 11
        2.86920
 21
        6.01545
 31
        8.80000
 12
       -5.13080
 22
        6.01545
 32
        8.80000
 13
       -5.13080
 23
        6.51545
 33
        8.80000
999
Building Shading:BUILDING 1 - COMPONENT BLOCK 3 - SURFACE 4 (4)
  0
3DFACE
  8
Building Shading
 62
195
 10
        2.86920
 20
        6.01545
 30
        8.80000
 11
        2.86920
 21
        6.01545
 31
        8.58638
 12
        2.86920
 22
        6.51545
 32
        8.58638
 13
        2.86920
 23
        6.51545
 33
        8.80000
999
Building Shading:Mir-BUILDING 1 - COMPONENT BLOCK 3 - SURFACE 4 (4)
  0
3DFACE
  8
Building Shading
 62
195
 10
        2.86920
 20
        6.51545
 30
        8.80000
 11
        2.86920
 21
        6.51545
 31
        8.58638
 12
        2.86920
 22
        6.01545
 32
        8.58638
 13
        2.86920
 23
        6.01545
 33
        8.80000
999
Building Shading:BUILDING 1 - COMPONENT BLOCK 3 - SURFACE 5 (5)
  0
3DFACE
  8
Building Shading
 62
195
 10
        2.86920
 20
        6.51545
 30
        8.58638
 11
        2.86920
 21
        6.01545
 31
        8.58638
 12
       -5.13080
 22
        6.01545
 32
        8.58638
 13
       -5.13080
 23
        6.51545
 33
        8.58638
999
Building Shading:Mir-BUILDING 1 - COMPONENT BLOCK 3 - SURFACE 5 (5)
  0
3DFACE
  8
Building Shading
 62
195
 10
       -5.13080
 20
        6.51545
 30
        8.58638
 11
       -5.13080
 21
        6.01545
 31
        8.58638
 12
        2.86920
 22
        6.01545
 32
        8.58638
 13
        2.86920
 23
        6.51545
 33
        8.58638
999
Building Shading:BUILDING 1 - COMPONENT BLOCK 3 - SURFACE 6 (6)
  0
3DFACE
  8
Building Shading
 62
195
 10
       -5.13080
 20
        6.51545
 30
        8.80000
 11
       -5.13080
 21
        6.51545
 31
        8.58638
 12
       -5.13080
 22
        6.01545
 32
        8.58638
 13
       -5.13080
 23
        6.01545
 33
        8.80000
999
Building Shading:Mir-BUILDING 1 - COMPONENT BLOCK 3 - SURFACE 6 (6)
  0
3DFACE
  8
Building Shading
 62
195
 10
       -5.13080
 20
        6.01545
 30
        8.80000
 11
       -5.13080
 21
        6.01545
 31
        8.58638
 12
       -5.13080
 22
        6.51545
 32
        8.58638
 13
       -5.13080
 23
        6.51545
 33
        8.80000
999
4767:4767_WALL_1_0_0
  0
3DFACE
  8
4767
 62
 43
 10
       -5.13080
 20
       -1.47621
 30
       11.60000
 11
       -5.13080
 21
       -1.47621
 31
        8.80000
 12
       -1.75086
 22
       -1.47621
 32
        8.80000
 13
       -1.75086
 23
       -1.47621
 33
       11.60000
999
4767:4767_PARTITION_2_0_0
  0
3DFACE
  8
4767
 62
 43
 10
       -1.75086
 20
       -1.47621
 30
        8.80000
 11
       -1.75086
 21
       -1.47621
 31
        5.80000
 12
       -1.75086
 22
        2.07409
 32
        5.80000
 13
       -1.75086
 23
        2.07409
 33
        8.80000
999
4767:4767_PARTITION_2_0_0_0_0_1_DOOR
  0
3DFACE
  8
4767
 62
 45
 10
       -1.75086
 20
       -1.36230
 30
        8.03000
 11
       -1.75086
 21
       -1.36230
 31
        6.05200
 12
       -1.75086
 22
       -0.36230
 32
        6.05200
 13
       -1.75086
 23
       -0.36230
 33
        8.03000
999
4767:4767_WALL_2_1_0
  0
3DFACE
  8
4767
 62
 43
 10
       -1.75086
 20
       -1.47621
 30
       11.60000
 11
       -1.75086
 21
       -1.47621
 31
        8.80000
 12
       -1.75086
 22
        2.05305
 32
        8.80000
 13
       -1.75086
 23
        2.05305
 33
       11.60000
999
4767:4767_WALL_2_1_0_0_0_0_DOOR
  0
3DFACE
  8
4767
 62
 45
 10
       -1.75086
 20
       -1.36230
 30
       10.85000
 11
       -1.75086
 21
       -1.36230
 31
        8.85000
 12
       -1.75086
 22
       -0.66230
 32
        8.85000
 13
       -1.75086
 23
       -0.66230
 33
       10.85000
999
4767:4767_WALL_3_0_0
  0
3DFACE
  8
4767
 62
 43
 10
       -5.13080
 20
       -1.47621
 30
        8.80000
 11
       -5.13080
 21
       -1.47621
 31
        5.80000
 12
       -5.13080
 22
       -1.49621
 32
        5.80000
 13
       -5.13080
 23
       -1.49621
 33
        8.80000
999
4767:4767_WALL_3_0_1
  0
3DFACE
  8
4767
 62
 43
 10
       -5.13080
 20
        2.05305
 30
       11.60000
 11
       -5.13080
 21
        2.05305
 31
        5.80000
 12
       -5.13080
 22
       -1.47621
 32
        5.80000
 13
       -5.13080
 23
       -1.47621
 33
       11.60000
999
4767:4767_WALL_4_0_0
  0
3DFACE
  8
4767
 62
 43
 10
       -1.75086
 20
        2.05305
 30
       11.60000
 11
       -1.75086
 21
        2.05305
 31
        8.80000
 12
       -5.13079
 22
        2.05305
 32
        8.80000
 13
       -5.13080
 23
        2.05305
 33
       11.60000
999
4767:4767_PARTITION_6_0_0
  0
3DFACE
  8
4767
 62
 43
 10
       -2.43080
 20
       -1.48455
 30
        8.80000
 11
       -2.43080
 21
       -1.48455
 31
        5.80000
 12
       -1.75086
 22
       -1.47621
 32
        5.80000
 13
       -1.75086
 23
       -1.47621
 33
        8.80000
999
4767:4767_PARTITION_7_0_0
  0
3DFACE
  8
4767
 62
 43
 10
       -1.75086
 20
        2.07409
 30
        8.80000
 11
       -1.75086
 21
        2.07409
 31
        5.80000
 12
       -5.13080
 22
        2.05305
 32
        5.80000
 13
       -5.13079
 23
        2.05305
 33
        8.80000
999
4767:4767_PARTITION_9_0_0
  0
3DFACE
  8
4767
 62
 43
 10
       -5.13080
 20
       -1.49621
 30
        8.80000
 11
       -5.13080
 21
       -1.49621
 31
        5.80000
 12
       -3.73080
 22
       -1.49621
 32
        5.80000
 13
       -3.73080
 23
       -1.49621
 33
        8.80000
999
4767:4767_PARTITION_10_0_0
  0
3DFACE
  8
4767
 62
 43
 10
       -3.73080
 20
       -1.49621
 30
        8.80000
 11
       -3.73080
 21
       -1.49621
 31
        5.80000
 12
       -2.43080
 22
       -1.48455
 32
        5.80000
 13
       -2.43080
 23
       -1.48455
 33
        8.80000
999
4767:4767_FLOOR_8_0_0
  0
3DFACE
  8
4767
 62
  8
 10
       -1.75086
 20
        2.07409
 30
        5.80000
 11
       -1.75086
 21
       -1.47621
 31
        5.80000
 12
       -3.73080
 22
       -1.49621
 32
        5.80000
 13
       -3.73080
 23
       -1.49621
 33
        5.80000
  0
3DFACE
  8
4767
 62
  8
 10
       -1.75086
 20
        2.07409
 30
        5.80000
 11
       -3.73080
 21
       -1.49621
 31
        5.80000
 12
       -5.13080
 22
       -1.49621
 32
        5.80000
 13
       -5.13080
 23
       -1.49621
 33
        5.80000
  0
3DFACE
  8
4767
 62
  8
 10
       -1.75086
 20
        2.07409
 30
        5.80000
 11
       -5.13080
 21
       -1.49621
 31
        5.80000
 12
       -5.13080
 22
        2.05305
 32
        5.80000
 13
       -5.13080
 23
        2.05305
 33
        5.80000
999
4767:4767_ROOF_0_0_0
  0
3DFACE
  8
4767
 62
 15
 10
       -5.13080
 20
        2.05305
 30
       11.60000
 11
       -5.13080
 21
       -1.47621
 31
       11.60000
 12
       -1.75086
 22
       -1.47621
 32
       11.60000
 13
       -1.75086
 23
        2.05305
 33
       11.60000
999
4767:4767_ROOF_0_0_0_0_0_0_WIN
  0
3DFACE
  8
4767
 62
143
 10
       -4.19155
 20
        1.01305
 30
       11.47000
 11
       -4.19155
 21
       -0.41027
 31
       11.47000
 12
       -2.77335
 22
       -0.41027
 32
       11.47000
 13
       -2.77335
 23
        1.01305
 33
       11.47000
999
4767:4767_ROOF_5_0_0
  0
3DFACE
  8
4767
 62
 15
 10
       -1.75086
 20
        2.07409
 30
        8.80000
 11
       -5.13079
 21
        2.05305
 31
        8.80000
 12
       -1.75086
 22
        2.05305
 32
        8.80000
 13
       -1.75086
 23
        2.05305
 33
        8.80000
999
4767:4767_ROOF_5_0_1
  0
3DFACE
  8
4767
 62
 15
 10
       -5.13080
 20
       -1.47621
 30
        8.80000
 11
       -5.13080
 21
       -1.49621
 31
        8.80000
 12
       -3.73080
 22
       -1.49621
 32
        8.80000
 13
       -1.75086
 23
       -1.47621
 33
        8.80000
999
4779:4779_PARTITION_2_0_10006
  0
3DFACE
  8
4779
 62
 43
 10
       -2.43080
 20
       -1.48455
 30
        8.80000
 11
       -2.43080
 21
       -1.48455
 31
        5.80000
 12
       -3.73080
 22
       -1.49621
 32
        5.80000
 13
       -3.73080
 23
       -1.49621
 33
        8.80000
999
4779:4779_PARTITION_1_0_0
  0
3DFACE
  8
4779
 62
 43
 10
       -2.43080
 20
       -2.98455
 30
        8.80000
 11
       -2.43080
 21
       -2.98455
 31
        5.80000
 12
       -2.43080
 22
       -1.48455
 32
        5.80000
 13
       -2.43080
 23
       -1.48455
 33
        8.80000
999
4779:4779_PARTITION_1_0_0_0_0_0_DOOR
  0
3DFACE
  8
4779
 62
 45
 10
       -2.43080
 20
       -2.83485
 30
        8.06876
 11
       -2.43080
 21
       -2.83485
 31
        6.20300
 12
       -2.43080
 22
       -2.03853
 32
        6.20300
 13
       -2.43080
 23
       -2.03853
 33
        8.06876
999
4779:4779_PARTITION_3_0_0
  0
3DFACE
  8
4779
 62
 43
 10
       -3.73080
 20
       -2.98455
 30
        8.80000
 11
       -3.73080
 21
       -2.98455
 31
        5.80000
 12
       -2.43080
 22
       -2.98455
 32
        5.80000
 13
       -2.43080
 23
       -2.98455
 33
        8.80000
999
4779:4779_PARTITION_4_0_0
  0
3DFACE
  8
4779
 62
 43
 10
       -3.73080
 20
       -1.49621
 30
        8.80000
 11
       -3.73080
 21
       -1.49621
 31
        5.80000
 12
       -3.73080
 22
       -2.98455
 32
        5.80000
 13
       -3.73080
 23
       -2.98455
 33
        8.80000
999
4779:4779_FLOOR_5_0_0
  0
3DFACE
  8
4779
 62
  8
 10
       -2.43080
 20
       -1.48455
 30
        5.80000
 11
       -2.43080
 21
       -2.98455
 31
        5.80000
 12
       -3.73080
 22
       -2.98455
 32
        5.80000
 13
       -3.73080
 23
       -1.49621
 33
        5.80000
999
4779:4779_ROOF_0_0_0
  0
3DFACE
  8
4779
 62
 15
 10
       -3.73080
 20
       -1.49621
 30
        8.80000
 11
       -3.73080
 21
       -2.98455
 31
        8.80000
 12
       -2.43080
 22
       -2.98455
 32
        8.80000
 13
       -2.43080
 23
       -1.48455
 33
        8.80000
999
4786:4786_PARTITION_2_0_10005
  0
3DFACE
  8
4786
 62
 43
 10
       -3.73080
 20
       -1.49621
 30
        8.80000
 11
       -3.73080
 21
       -1.49621
 31
        5.80000
 12
       -5.13080
 22
       -1.49621
 32
        5.80000
 13
       -5.13080
 23
       -1.49621
 33
        8.80000
999
4786:4786_PARTITION_5_0_10010
  0
3DFACE
  8
4786
 62
 43
 10
       -3.73080
 20
       -2.98455
 30
        8.80000
 11
       -3.73080
 21
       -2.98455
 31
        5.80000
 12
       -3.73080
 22
       -1.49621
 32
        5.80000
 13
       -3.73080
 23
       -1.49621
 33
        8.80000
999
4786:4786_WALL_0_0_0
  0
3DFACE
  8
4786
 62
 43
 10
       -5.13080
 20
       -1.49621
 30
        8.80000
 11
       -5.13080
 21
       -1.49621
 31
        5.80000
 12
       -5.13080
 22
       -2.98455
 32
        5.80000
 13
       -5.13080
 23
       -2.98455
 33
        8.80000
999
4786:4786_PARTITION_3_0_0
  0
3DFACE
  8
4786
 62
 43
 10
       -5.13080
 20
       -2.98455
 30
        8.80000
 11
       -5.13080
 21
       -2.98455
 31
        5.80000
 12
       -3.73080
 22
       -2.98455
 32
        5.80000
 13
       -3.73080
 23
       -2.98455
 33
        8.80000
999
4786:4786_FLOOR_4_0_0
  0
3DFACE
  8
4786
 62
  8
 10
       -3.73080
 20
       -1.49621
 30
        5.80000
 11
       -3.73080
 21
       -2.98455
 31
        5.80000
 12
       -5.13080
 22
       -2.98455
 32
        5.80000
 13
       -5.13080
 23
       -1.49621
 33
        5.80000
999
4786:4786_ROOF_1_0_0
  0
3DFACE
  8
4786
 62
 15
 10
       -5.13080
 20
       -1.49621
 30
        8.80000
 11
       -5.13080
 21
       -2.98455
 31
        8.80000
 12
       -3.73080
 22
       -2.98455
 32
        8.80000
 13
       -3.73080
 23
       -1.49621
 33
        8.80000
999
4793:4793_PARTITION_8_0_10000
  0
3DFACE
  8
4793
 62
 43
 10
       -1.75086
 20
        2.07409
 30
        8.80000
 11
       -1.75086
 21
        2.07409
 31
        5.80000
 12
       -1.75086
 22
       -1.47621
 32
        5.80000
 13
       -1.75086
 23
       -1.47621
 33
        8.80000
999
4793:4793_PARTITION_8_0_0_0_0_0_DOOR_10002
  0
3DFACE
  8
4793
 62
 45
 10
       -1.75086
 20
       -0.36230
 30
        8.03000
 11
       -1.75086
 21
       -0.36230
 31
        6.05200
 12
       -1.75086
 22
       -1.36230
 32
        6.05200
 13
       -1.75086
 23
       -1.36230
 33
        8.03000
999
4793:4793_PARTITION_7_0_10002
  0
3DFACE
  8
4793
 62
 43
 10
       -1.75086
 20
       -1.47621
 30
        8.80000
 11
       -1.75086
 21
       -1.47621
 31
        5.80000
 12
       -2.43080
 22
       -1.48455
 32
        5.80000
 13
       -2.43080
 23
       -1.48455
 33
        8.80000
999
4793:4793_PARTITION_6_0_10007
  0
3DFACE
  8
4793
 62
 43
 10
       -2.43080
 20
       -1.48455
 30
        8.80000
 11
       -2.43080
 21
       -1.48455
 31
        5.80000
 12
       -2.43080
 22
       -2.98455
 32
        5.80000
 13
       -2.43080
 23
       -2.98455
 33
        8.80000
999
4793:4793_PARTITION_6_0_0_0_0_0_DOOR_10009
  0
3DFACE
  8
4793
 62
 45
 10
       -2.43080
 20
       -2.03853
 30
        8.06876
 11
       -2.43080
 21
       -2.03853
 31
        6.20300
 12
       -2.43080
 22
       -2.83485
 32
        6.20300
 13
       -2.43080
 23
       -2.83485
 33
        8.06876
999
4793:4793_WALL_1_0_0
  0
3DFACE
  8
4793
 62
 43
 10
        2.86920
 20
        6.01545
 30
        8.80000
 11
        2.86920
 21
        6.01545
 31
        5.80000
 12
       -1.13080
 22
        6.01545
 32
        5.80000
 13
       -1.13080
 23
        6.01545
 33
        8.80000
999
4793:4793_WALL_1_0_0_0_0_0_WIN
  0
3DFACE
  8
4793
 62
143
 10
        1.53574
 20
        5.88545
 30
        8.26500
 11
        1.53574
 21
        5.88545
 31
        6.83500
 12
        1.15574
 22
        5.88545
 32
        6.83500
 13
        1.15574
 23
        5.88545
 33
        8.26500
999
4793:4793_WALL_1_0_0_1_0_1_WIN
  0
3DFACE
  8
4793
 62
143
 10
        1.04574
 20
        5.88545
 30
        8.26500
 11
        1.04574
 21
        5.88545
 31
        6.83500
 12
        0.66831
 22
        5.88545
 32
        6.83500
 13
        0.66831
 23
        5.88545
 33
        8.26500
999
4793:4793_WALL_1_0_0_2_0_2_WIN
  0
3DFACE
  8
4793
 62
143
 10
        0.55831
 20
        5.88545
 30
        8.26500
 11
        0.55831
 21
        5.88545
 31
        6.83500
 12
        0.17423
 22
        5.88545
 32
        6.83500
 13
        0.17423
 23
        5.88545
 33
        8.26500
999
4793:4793_PARTITION_2_0_0
  0
3DFACE
  8
4793
 62
 43
 10
       -1.13080
 20
        6.01545
 30
        8.80000
 11
       -1.13080
 21
        6.01545
 31
        5.80000
 12
       -1.13080
 22
        2.07795
 32
        5.80000
 13
       -1.13080
 23
        2.07795
 33
        8.80000
999
4793:4793_PARTITION_2_0_0_0_0_0_HOLE
  0
3DFACE
  8
4793
 62
143
 10
       -1.13080
 20
        5.78545
 30
        8.56100
 11
       -1.13080
 21
        5.78545
 31
        6.06400
 12
       -1.13080
 22
        2.18546
 32
        6.06400
 13
       -1.13080
 23
        2.18546
 33
        8.56100
999
4793:4793_WALL_3_0_0
  0
3DFACE
  8
4793
 62
 43
 10
        2.86920
 20
       -2.98455
 30
        8.80000
 11
        2.86920
 21
       -2.98455
 31
        5.80000
 12
        2.86920
 22
        6.01545
 32
        5.80000
 13
        2.86920
 23
        6.01545
 33
        8.80000
999
4793:4793_PARTITION_4_0_0
  0
3DFACE
  8
4793
 62
 43
 10
       -1.13080
 20
       -2.98455
 30
        8.80000
 11
       -1.13080
 21
       -2.98455
 31
        5.80000
 12
        2.86920
 22
       -2.98455
 32
        5.80000
 13
        2.86920
 23
       -2.98455
 33
        8.80000
999
4793:4793_PARTITION_4_0_0_0_0_0_DOOR
  0
3DFACE
  8
4793
 62
 45
 10
       -0.98544
 20
       -2.98455
 30
        8.03622
 11
       -0.98544
 21
       -2.98455
 31
        6.05200
 12
       -0.17717
 22
       -2.98455
 32
        6.05200
 13
       -0.17717
 23
       -2.98455
 33
        8.03622
999
4793:4793_PARTITION_5_0_0
  0
3DFACE
  8
4793
 62
 43
 10
       -2.43080
 20
       -2.98455
 30
        8.80000
 11
       -2.43080
 21
       -2.98455
 31
        5.80000
 12
       -1.13080
 22
       -2.98455
 32
        5.80000
 13
       -1.13080
 23
       -2.98455
 33
        8.80000
999
4793:4793_PARTITION_5_0_0_0_0_0_DOOR
  0
3DFACE
  8
4793
 62
 45
 10
       -2.27697
 20
       -2.98455
 30
        8.01976
 11
       -2.27697
 21
       -2.98455
 31
        6.05200
 12
       -1.48678
 22
       -2.98455
 32
        6.05200
 13
       -1.48678
 23
       -2.98455
 33
        8.01976
999
4793:4793_PARTITION_9_0_0
  0
3DFACE
  8
4793
 62
 43
 10
       -1.13080
 20
        2.07795
 30
        8.80000
 11
       -1.13080
 21
        2.07795
 31
        5.80000
 12
       -1.75086
 22
        2.07409
 32
        5.80000
 13
       -1.75086
 23
        2.07409
 33
        8.80000
999
4793:4793_FLOOR_10_0_0
  0
3DFACE
  8
4793
 62
  8
 10
       -1.75086
 20
       -1.47621
 30
        5.80000
 11
       -1.75086
 21
       -2.98455
 31
        5.80000
 12
       -2.43080
 22
       -2.98455
 32
        5.80000
 13
       -2.43080
 23
       -1.48455
 33
        5.80000
999
4793:4793_FLOOR_10_0_1
  0
3DFACE
  8
4793
 62
  8
 10
       -1.13080
 20
        2.07795
 30
        5.80000
 11
       -1.13080
 21
       -2.98455
 31
        5.80000
 12
       -1.75086
 22
       -2.98455
 32
        5.80000
 13
       -1.75086
 23
        2.07409
 33
        5.80000
999
4793:4793_FLOOR_10_0_2
  0
3DFACE
  8
4793
 62
  8
 10
        2.86920
 20
        6.01545
 30
        5.80000
 11
        2.86920
 21
       -2.98455
 31
        5.80000
 12
       -1.13080
 22
       -2.98455
 32
        5.80000
 13
       -1.13080
 23
        6.01545
 33
        5.80000
999
4793:4793_ROOF_0_0_0
  0
3DFACE
  8
4793
 62
 15
 10
       -1.13080
 20
        6.01545
 30
        8.80000
 11
       -1.13080
 21
        2.07795
 31
        8.80000
 12
        2.86920
 22
        2.10286
 32
        8.80000
 13
        2.86920
 23
        6.01545
 33
        8.80000
999
4793:4793_ROOF_0_0_1
  0
3DFACE
  8
4793
 62
 15
 10
       -1.75086
 20
        2.07409
 30
        8.80000
 11
       -1.75086
 21
       -1.47621
 31
        8.80000
 12
        2.86920
 22
       -1.41957
 32
        8.80000
 13
        2.86920
 23
        2.10286
 33
        8.80000
999
4793:4793_ROOF_0_0_2
  0
3DFACE
  8
4793
 62
 15
 10
       -2.43080
 20
       -1.48455
 30
        8.80000
 11
       -2.43080
 21
       -2.98455
 31
        8.80000
 12
        2.86920
 22
       -2.98455
 32
        8.80000
 13
        2.86920
 23
       -1.41957
 33
        8.80000
999
4805:4805_PARTITION_4_0_10003
  0
3DFACE
  8
4805
 62
 43
 10
       -5.13079
 20
        2.05305
 30
        8.80000
 11
       -5.13080
 21
        2.05305
 31
        5.80000
 12
       -1.75086
 22
        2.07409
 32
        5.80000
 13
       -1.75086
 23
        2.07409
 33
        8.80000
999
4805:4805_PARTITION_5_0_10014
  0
3DFACE
  8
4805
 62
 43
 10
       -1.13080
 20
        2.07795
 30
        8.80000
 11
       -1.13080
 21
        2.07795
 31
        5.80000
 12
       -1.13080
 22
        6.01545
 32
        5.80000
 13
       -1.13080
 23
        6.01545
 33
        8.80000
999
4805:4805_PARTITION_5_0_0_0_0_0_HOLE_10016
  0
3DFACE
  8
4805
 62
143
 10
       -1.13080
 20
        2.18546
 30
        8.56100
 11
       -1.13080
 21
        2.18546
 31
        6.06400
 12
       -1.13080
 22
        5.78545
 32
        6.06400
 13
       -1.13080
 23
        5.78545
 33
        8.56100
999
4805:4805_PARTITION_6_0_10020
  0
3DFACE
  8
4805
 62
 43
 10
       -1.75086
 20
        2.07409
 30
        8.80000
 11
       -1.75086
 21
        2.07409
 31
        5.80000
 12
       -1.13080
 22
        2.07795
 32
        5.80000
 13
       -1.13080
 23
        2.07795
 33
        8.80000
999
4805:4805_WALL_0_0_0
  0
3DFACE
  8
4805
 62
 43
 10
       -5.13080
 20
        6.01545
 30
        8.80000
 11
       -5.13081
 21
        6.01545
 31
        5.80000
 12
       -5.13080
 22
        2.05305
 32
        5.80000
 13
       -5.13079
 23
        2.05305
 33
        8.80000
999
4805:4805_WALL_2_0_0
  0
3DFACE
  8
4805
 62
 43
 10
       -1.13080
 20
        6.01545
 30
        8.80000
 11
       -1.13080
 21
        6.01545
 31
        5.80000
 12
       -5.13080
 22
        6.01545
 32
        5.80000
 13
       -5.13080
 23
        6.01545
 33
        8.80000
999
4805:4805_WALL_2_0_0_0_0_0_WIN
  0
3DFACE
  8
4805
 62
143
 10
       -3.42307
 20
        5.88545
 30
        8.27519
 11
       -3.42307
 21
        5.88545
 31
        6.84265
 12
       -3.80347
 22
        5.88545
 32
        6.84265
 13
       -3.80347
 23
        5.88545
 33
        8.27519
999
4805:4805_WALL_2_0_0_1_0_1_WIN
  0
3DFACE
  8
4805
 62
143
 10
       -2.92945
 20
        5.88545
 30
        8.27519
 11
       -2.92945
 21
        5.88545
 31
        6.84265
 12
       -3.30705
 22
        5.88545
 32
        6.84265
 13
       -3.30705
 23
        5.88545
 33
        8.27519
999
4805:4805_WALL_2_0_0_2_0_2_WIN
  0
3DFACE
  8
4805
 62
143
 10
       -2.44002
 20
        5.88545
 30
        8.27519
 11
       -2.44002
 21
        5.88545
 31
        6.84265
 12
       -2.81762
 22
        5.88545
 32
        6.84265
 13
       -2.81762
 23
        5.88545
 33
        8.27519
999
4805:4805_FLOOR_3_0_0
  0
3DFACE
  8
4805
 62
  8
 10
       -1.13080
 20
        6.01545
 30
        5.80000
 11
       -1.13080
 21
        2.07795
 31
        5.80000
 12
       -5.13080
 22
        2.05305
 32
        5.80000
 13
       -5.13080
 23
        6.01545
 33
        5.80000
999
4805:4805_ROOF_1_0_0
  0
3DFACE
  8
4805
 62
 15
 10
       -5.13080
 20
        6.01545
 30
        8.80000
 11
       -5.13079
 21
        2.05305
 31
        8.80000
 12
       -1.13080
 22
        2.07795
 32
        8.80000
 13
       -1.13080
 23
        6.01545
 33
        8.80000
999
4813:4813_PARTITION_1_0_10016
  0
3DFACE
  8
4813
 62
 43
 10
        2.86920
 20
       -2.98455
 30
        8.80000
 11
        2.86920
 21
       -2.98455
 31
        5.80000
 12
       -1.13080
 22
       -2.98455
 32
        5.80000
 13
       -1.13080
 23
       -2.98455
 33
        8.80000
999
4813:4813_PARTITION_1_0_0_0_0_0_DOOR_10018
  0
3DFACE
  8
4813
 62
 45
 10
       -0.17717
 20
       -2.98455
 30
        8.03622
 11
       -0.17717
 21
       -2.98455
 31
        6.05200
 12
       -0.98544
 22
       -2.98455
 32
        6.05200
 13
       -0.98544
 23
       -2.98455
 33
        8.03622
999
4813:4813_PARTITION_2_0_0
  0
3DFACE
  8
4813
 62
 43
 10
       -1.13080
 20
       -2.98455
 30
        8.80000
 11
       -1.13080
 21
       -2.98455
 31
        5.80000
 12
       -1.13080
 22
       -5.98455
 32
        5.80000
 13
       -1.13080
 23
       -5.98455
 33
        8.80000
999
4813:4813_WALL_3_0_0
  0
3DFACE
  8
4813
 62
 43
 10
        2.86920
 20
       -5.98455
 30
        8.80000
 11
        2.86920
 21
       -5.98455
 31
        5.80000
 12
        2.86920
 22
       -2.98455
 32
        5.80000
 13
        2.86920
 23
       -2.98455
 33
        8.80000
999
4813:4813_WALL_4_0_0
  0
3DFACE
  8
4813
 62
 43
 10
       -1.13080
 20
       -5.98455
 30
        8.80000
 11
       -1.13080
 21
       -5.98455
 31
        5.80000
 12
        2.86920
 22
       -5.98455
 32
        5.80000
 13
        2.86920
 23
       -5.98455
 33
        8.80000
999
4813:4813_WALL_4_0_0_0_0_0_WIN
  0
3DFACE
  8
4813
 62
143
 10
        1.14616
 20
       -5.85455
 30
        8.26041
 11
        1.14616
 21
       -5.85455
 31
        6.83117
 12
        1.52945
 22
       -5.85455
 32
        6.83117
 13
        1.52945
 23
       -5.85455
 33
        8.26041
999
4813:4813_WALL_4_0_0_1_0_1_WIN
  0
3DFACE
  8
4813
 62
143
 10
        0.65611
 20
       -5.85455
 30
        8.26041
 11
        0.65611
 21
       -5.85455
 31
        6.83117
 12
        1.03616
 22
       -5.85455
 32
        6.83117
 13
        1.03616
 23
       -5.85455
 33
        8.26041
999
4813:4813_WALL_4_0_0_2_0_2_WIN
  0
3DFACE
  8
4813
 62
143
 10
        0.16607
 20
       -5.85455
 30
        8.26041
 11
        0.16607
 21
       -5.85455
 31
        6.83117
 12
        0.54611
 22
       -5.85455
 32
        6.83117
 13
        0.54611
 23
       -5.85455
 33
        8.26041
999
4813:4813_FLOOR_5_0_0
  0
3DFACE
  8
4813
 62
  8
 10
        2.86920
 20
       -2.98455
 30
        5.80000
 11
        2.86920
 21
       -5.98455
 31
        5.80000
 12
       -1.13080
 22
       -5.98455
 32
        5.80000
 13
       -1.13080
 23
       -2.98455
 33
        5.80000
999
4813:4813_ROOF_0_0_0
  0
3DFACE
  8
4813
 62
 15
 10
       -1.13080
 20
       -2.98455
 30
        8.80000
 11
       -1.13080
 21
       -5.98455
 31
        8.80000
 12
        2.86920
 22
       -5.98455
 32
        8.80000
 13
        2.86920
 23
       -2.98455
 33
        8.80000
999
4820:4820_PARTITION_5_0_10009
  0
3DFACE
  8
4820
 62
 43
 10
       -2.43080
 20
       -2.98455
 30
        8.80000
 11
       -2.43080
 21
       -2.98455
 31
        5.80000
 12
       -3.73080
 22
       -2.98455
 32
        5.80000
 13
       -3.73080
 23
       -2.98455
 33
        8.80000
999
4820:4820_PARTITION_2_0_10012
  0
3DFACE
  8
4820
 62
 43
 10
       -3.73080
 20
       -2.98455
 30
        8.80000
 11
       -3.73080
 21
       -2.98455
 31
        5.80000
 12
       -5.13080
 22
       -2.98455
 32
        5.80000
 13
       -5.13080
 23
       -2.98455
 33
        8.80000
999
4820:4820_PARTITION_6_0_10018
  0
3DFACE
  8
4820
 62
 43
 10
       -1.13080
 20
       -2.98455
 30
        8.80000
 11
       -1.13080
 21
       -2.98455
 31
        5.80000
 12
       -2.43080
 22
       -2.98455
 32
        5.80000
 13
       -2.43080
 23
       -2.98455
 33
        8.80000
999
4820:4820_PARTITION_6_0_0_0_0_0_DOOR_10020
  0
3DFACE
  8
4820
 62
 45
 10
       -1.48678
 20
       -2.98455
 30
        8.01976
 11
       -1.48678
 21
       -2.98455
 31
        6.05200
 12
       -2.27697
 22
       -2.98455
 32
        6.05200
 13
       -2.27697
 23
       -2.98455
 33
        8.01976
999
4820:4820_PARTITION_7_0_10025
  0
3DFACE
  8
4820
 62
 43
 10
       -1.13080
 20
       -5.98455
 30
        8.80000
 11
       -1.13080
 21
       -5.98455
 31
        5.80000
 12
       -1.13080
 22
       -2.98455
 32
        5.80000
 13
       -1.13080
 23
       -2.98455
 33
        8.80000
999
4820:4820_WALL_0_0_0
  0
3DFACE
  8
4820
 62
 43
 10
       -5.13080
 20
       -2.98455
 30
        8.80000
 11
       -5.13080
 21
       -2.98455
 31
        5.80000
 12
       -5.13080
 22
       -5.98455
 32
        5.80000
 13
       -5.13080
 23
       -5.98455
 33
        8.80000
999
4820:4820_WALL_3_0_0
  0
3DFACE
  8
4820
 62
 43
 10
       -5.13080
 20
       -5.98455
 30
        8.80000
 11
       -5.13080
 21
       -5.98455
 31
        5.80000
 12
       -1.13080
 22
       -5.98455
 32
        5.80000
 13
       -1.13080
 23
       -5.98455
 33
        8.80000
999
4820:4820_WALL_3_0_0_0_0_0_WIN
  0
3DFACE
  8
4820
 62
143
 10
       -3.79580
 20
       -5.85455
 30
        8.26117
 11
       -3.79580
 21
       -5.85455
 31
        6.83117
 12
       -3.41580
 22
       -5.85455
 32
        6.83117
 13
       -3.41580
 23
       -5.85455
 33
        8.26117
999
4820:4820_WALL_3_0_0_1_0_1_WIN
  0
3DFACE
  8
4820
 62
143
 10
       -3.30580
 20
       -5.85455
 30
        8.26117
 11
       -3.30580
 21
       -5.85455
 31
        6.83117
 12
       -2.92534
 22
       -5.85455
 32
        6.83117
 13
       -2.92534
 23
       -5.85455
 33
        8.26117
999
4820:4820_WALL_3_0_0_2_0_2_WIN
  0
3DFACE
  8
4820
 62
143
 10
       -2.81534
 20
       -5.85455
 30
        8.26117
 11
       -2.81534
 21
       -5.85455
 31
        6.83117
 12
       -2.44024
 22
       -5.85455
 32
        6.83117
 13
       -2.44024
 23
       -5.85455
 33
        8.26117
999
4820:4820_FLOOR_4_0_0
  0
3DFACE
  8
4820
 62
  8
 10
       -1.13080
 20
       -2.98455
 30
        5.80000
 11
       -1.13080
 21
       -5.98455
 31
        5.80000
 12
       -5.13080
 22
       -5.98455
 32
        5.80000
 13
       -5.13080
 23
       -2.98455
 33
        5.80000
999
4820:4820_ROOF_1_0_0
  0
3DFACE
  8
4820
 62
 15
 10
       -5.13080
 20
       -2.98455
 30
        8.80000
 11
       -5.13080
 21
       -5.98455
 31
        8.80000
 12
       -1.13080
 22
       -5.98455
 32
        8.80000
 13
       -1.13080
 23
       -2.98455
 33
        8.80000
999
5618:5618_PARTITION_2_0_0
  0
3DFACE
  8
5618
 62
 43
 10
       -1.13080
 20
       -5.98455
 30
        5.80000
 11
       -1.13080
 21
       -5.98455
 31
        2.80000
 12
       -1.13080
 22
       -2.98455
 32
        2.80000
 13
       -1.13080
 23
       -2.98455
 33
        5.80000
999
5618:5618_PARTITION_3_0_0
  0
3DFACE
  8
5618
 62
 43
 10
       -1.13080
 20
       -2.98455
 30
        5.80000
 11
       -1.13080
 21
       -2.98455
 31
        2.80000
 12
       -2.43080
 22
       -2.98455
 32
        2.80000
 13
       -2.43080
 23
       -2.98455
 33
        5.80000
999
5618:5618_PARTITION_3_0_0_0_0_0_DOOR
  0
3DFACE
  8
5618
 62
 45
 10
       -1.48678
 20
       -2.98455
 30
        5.01976
 11
       -1.48678
 21
       -2.98455
 31
        3.09220
 12
       -2.27697
 22
       -2.98455
 32
        3.09220
 13
       -2.27697
 23
       -2.98455
 33
        5.01976
999
5618:5618_PARTITION_4_0_0
  0
3DFACE
  8
5618
 62
 43
 10
       -2.43080
 20
       -2.98455
 30
        5.80000
 11
       -2.43080
 21
       -2.98455
 31
        2.80000
 12
       -3.73080
 22
       -2.98455
 32
        2.80000
 13
       -3.73080
 23
       -2.98455
 33
        5.80000
999
5618:5618_PARTITION_5_0_0
  0
3DFACE
  8
5618
 62
 43
 10
       -3.73080
 20
       -2.98455
 30
        5.80000
 11
       -3.73080
 21
       -2.98455
 31
        2.80000
 12
       -5.13080
 22
       -2.98455
 32
        2.80000
 13
       -5.13080
 23
       -2.98455
 33
        5.80000
999
5618:5618_WALL_6_0_0
  0
3DFACE
  8
5618
 62
 43
 10
       -5.13080
 20
       -2.98455
 30
        5.80000
 11
       -5.13080
 21
       -2.98455
 31
        2.80000
 12
       -5.13080
 22
       -5.98455
 32
        2.80000
 13
       -5.13080
 23
       -5.98455
 33
        5.80000
999
5618:5618_WALL_7_0_0
  0
3DFACE
  8
5618
 62
 43
 10
       -5.13080
 20
       -5.98455
 30
        5.80000
 11
       -5.13080
 21
       -5.98455
 31
        2.80000
 12
       -1.13080
 22
       -5.98455
 32
        2.80000
 13
       -1.13080
 23
       -5.98455
 33
        5.80000
999
5618:5618_WALL_7_0_0_0_0_0_WIN
  0
3DFACE
  8
5618
 62
143
 10
       -3.79580
 20
       -5.85455
 30
        5.26117
 11
       -3.79580
 21
       -5.85455
 31
        3.83117
 12
       -3.41580
 22
       -5.85455
 32
        3.83117
 13
       -3.41580
 23
       -5.85455
 33
        5.26117
999
5618:5618_WALL_7_0_0_1_0_1_WIN
  0
3DFACE
  8
5618
 62
143
 10
       -3.30580
 20
       -5.85455
 30
        5.26117
 11
       -3.30580
 21
       -5.85455
 31
        3.83117
 12
       -2.92534
 22
       -5.85455
 32
        3.83117
 13
       -2.92534
 23
       -5.85455
 33
        5.26117
999
5618:5618_WALL_7_0_0_2_0_2_WIN
  0
3DFACE
  8
5618
 62
143
 10
       -2.81534
 20
       -5.85455
 30
        5.26117
 11
       -2.81534
 21
       -5.85455
 31
        3.83117
 12
       -2.44024
 22
       -5.85455
 32
        3.83117
 13
       -2.44024
 23
       -5.85455
 33
        5.26117
999
5618:5618_FLOOR_0_0_0
  0
3DFACE
  8
5618
 62
  8
 10
       -1.13080
 20
       -2.98455
 30
        2.80000
 11
       -1.13080
 21
       -5.98455
 31
        2.80000
 12
       -5.13080
 22
       -5.98455
 32
        2.80000
 13
       -5.13080
 23
       -2.98455
 33
        2.80000
999
5618:5618_CEILING_1_0_10027
  0
3DFACE
  8
5618
 62
 15
 10
       -5.13080
 20
       -2.98455
 30
        5.80000
 11
       -5.13080
 21
       -5.98455
 31
        5.80000
 12
       -1.13080
 22
       -5.98455
 32
        5.80000
 13
       -1.13080
 23
       -2.98455
 33
        5.80000
999
5627:5627_PARTITION_4_0_10029
  0
3DFACE
  8
5627
 62
 43
 10
       -1.13080
 20
       -2.98455
 30
        5.80000
 11
       -1.13080
 21
       -2.98455
 31
        2.80000
 12
       -1.13080
 22
       -5.98455
 32
        2.80000
 13
       -1.13080
 23
       -5.98455
 33
        5.80000
999
5627:5627_WALL_2_0_0
  0
3DFACE
  8
5627
 62
 43
 10
        2.86920
 20
       -5.98455
 30
        5.80000
 11
        2.86920
 21
       -5.98455
 31
        2.80000
 12
        2.86920
 22
       -2.98455
 32
        2.80000
 13
        2.86920
 23
       -2.98455
 33
        5.80000
999
5627:5627_PARTITION_3_0_0
  0
3DFACE
  8
5627
 62
 43
 10
        2.86920
 20
       -2.98455
 30
        5.80000
 11
        2.86920
 21
       -2.98455
 31
        2.80000
 12
       -1.13080
 22
       -2.98455
 32
        2.80000
 13
       -1.13080
 23
       -2.98455
 33
        5.80000
999
5627:5627_PARTITION_3_0_0_0_0_0_DOOR
  0
3DFACE
  8
5627
 62
 45
 10
       -0.17717
 20
       -2.98455
 30
        5.03622
 11
       -0.17717
 21
       -2.98455
 31
        3.09220
 12
       -0.98544
 22
       -2.98455
 32
        3.09220
 13
       -0.98544
 23
       -2.98455
 33
        5.03622
999
5627:5627_WALL_5_0_0
  0
3DFACE
  8
5627
 62
 43
 10
       -1.13080
 20
       -5.98455
 30
        5.80000
 11
       -1.13080
 21
       -5.98455
 31
        2.80000
 12
        2.86920
 22
       -5.98455
 32
        2.80000
 13
        2.86920
 23
       -5.98455
 33
        5.80000
999
5627:5627_WALL_5_0_0_0_0_0_WIN
  0
3DFACE
  8
5627
 62
143
 10
        1.14616
 20
       -5.85455
 30
        5.26041
 11
        1.14616
 21
       -5.85455
 31
        3.83117
 12
        1.52945
 22
       -5.85455
 32
        3.83117
 13
        1.52945
 23
       -5.85455
 33
        5.26041
999
5627:5627_WALL_5_0_0_1_0_1_WIN
  0
3DFACE
  8
5627
 62
143
 10
        0.65611
 20
       -5.85455
 30
        5.26041
 11
        0.65611
 21
       -5.85455
 31
        3.83117
 12
        1.03616
 22
       -5.85455
 32
        3.83117
 13
        1.03616
 23
       -5.85455
 33
        5.26041
999
5627:5627_WALL_5_0_0_2_0_2_WIN
  0
3DFACE
  8
5627
 62
143
 10
        0.16607
 20
       -5.85455
 30
        5.26041
 11
        0.16607
 21
       -5.85455
 31
        3.83117
 12
        0.54611
 22
       -5.85455
 32
        3.83117
 13
        0.54611
 23
       -5.85455
 33
        5.26041
999
5627:5627_FLOOR_0_0_0
  0
3DFACE
  8
5627
 62
  8
 10
        2.86920
 20
       -2.98455
 30
        2.80000
 11
        2.86920
 21
       -5.98455
 31
        2.80000
 12
       -1.13080
 22
       -5.98455
 32
        2.80000
 13
       -1.13080
 23
       -2.98455
 33
        2.80000
999
5627:5627_CEILING_1_0_10026
  0
3DFACE
  8
5627
 62
 15
 10
       -1.13080
 20
       -2.98455
 30
        5.80000
 11
       -1.13080
 21
       -5.98455
 31
        5.80000
 12
        2.86920
 22
       -5.98455
 32
        5.80000
 13
        2.86920
 23
       -2.98455
 33
        5.80000
999
5634:5634_PARTITION_2_0_0
  0
3DFACE
  8
5634
 62
 43
 10
       -1.13080
 20
        2.07795
 30
        5.80000
 11
       -1.13080
 21
        2.07795
 31
        2.80000
 12
       -1.13080
 22
        6.01545
 32
        2.80000
 13
       -1.13080
 23
        6.01545
 33
        5.80000
999
5634:5634_PARTITION_2_0_0_0_0_0_HOLE
  0
3DFACE
  8
5634
 62
143
 10
       -1.13080
 20
        2.18846
 30
        5.79700
 11
       -1.13080
 21
        2.18846
 31
        3.09520
 12
       -1.13080
 22
        5.78245
 32
        3.09520
 13
       -1.13080
 23
        5.78245
 33
        5.79700
999
5634:5634_WALL_3_0_0
  0
3DFACE
  8
5634
 62
 43
 10
       -1.13080
 20
        6.01545
 30
        5.80000
 11
       -1.13080
 21
        6.01545
 31
        2.80000
 12
       -5.13080
 22
        6.01545
 32
        2.80000
 13
       -5.13080
 23
        6.01545
 33
        5.80000
999
5634:5634_WALL_3_0_0_0_0_0_WIN
  0
3DFACE
  8
5634
 62
143
 10
       -3.42307
 20
        5.88545
 30
        5.27519
 11
       -3.42307
 21
        5.88545
 31
        3.84265
 12
       -3.80347
 22
        5.88545
 32
        3.84265
 13
       -3.80347
 23
        5.88545
 33
        5.27519
999
5634:5634_WALL_3_0_0_1_0_1_WIN
  0
3DFACE
  8
5634
 62
143
 10
       -2.92945
 20
        5.88545
 30
        5.27519
 11
       -2.92945
 21
        5.88545
 31
        3.84265
 12
       -3.30705
 22
        5.88545
 32
        3.84265
 13
       -3.30705
 23
        5.88545
 33
        5.27519
999
5634:5634_WALL_3_0_0_2_0_2_WIN
  0
3DFACE
  8
5634
 62
143
 10
       -2.44002
 20
        5.88545
 30
        5.27519
 11
       -2.44002
 21
        5.88545
 31
        3.84265
 12
       -2.81762
 22
        5.88545
 32
        3.84265
 13
       -2.81762
 23
        5.88545
 33
        5.27519
999
5634:5634_WALL_4_0_0
  0
3DFACE
  8
5634
 62
 43
 10
       -5.13080
 20
        6.01545
 30
        5.80000
 11
       -5.13080
 21
        6.01545
 31
        2.80000
 12
       -5.13080
 22
        2.05305
 32
        2.80000
 13
       -5.13080
 23
        2.05305
 33
        5.80000
999
5634:5634_PARTITION_5_0_0
  0
3DFACE
  8
5634
 62
 43
 10
       -5.13080
 20
        2.05305
 30
        5.80000
 11
       -5.13080
 21
        2.05305
 31
        2.80000
 12
       -1.75086
 22
        2.07409
 32
        2.80000
 13
       -1.75086
 23
        2.07409
 33
        5.80000
999
5634:5634_PARTITION_6_0_0
  0
3DFACE
  8
5634
 62
 43
 10
       -1.75086
 20
        2.07409
 30
        5.80000
 11
       -1.75086
 21
        2.07409
 31
        2.80000
 12
       -1.13080
 22
        2.07795
 32
        2.80000
 13
       -1.13080
 23
        2.07795
 33
        5.80000
999
5634:5634_FLOOR_0_0_0
  0
3DFACE
  8
5634
 62
  8
 10
       -1.13080
 20
        6.01545
 30
        2.80000
 11
       -1.13080
 21
        2.07795
 31
        2.80000
 12
       -5.13080
 22
        2.05305
 32
        2.80000
 13
       -5.13080
 23
        6.01545
 33
        2.80000
999
5634:5634_CEILING_1_0_10024
  0
3DFACE
  8
5634
 62
 15
 10
       -5.13080
 20
        6.01545
 30
        5.80000
 11
       -5.13080
 21
        2.05305
 31
        5.80000
 12
       -1.13080
 22
        2.07795
 32
        5.80000
 13
       -1.13080
 23
        6.01545
 33
        5.80000
999
5642:5642_PARTITION_9_0_10030
  0
3DFACE
  8
5642
 62
 43
 10
       -2.43080
 20
       -2.98455
 30
        5.80000
 11
       -2.43080
 21
       -2.98455
 31
        2.80000
 12
       -1.13080
 22
       -2.98455
 32
        2.80000
 13
       -1.13080
 23
       -2.98455
 33
        5.80000
999
5642:5642_PARTITION_9_0_0_0_0_0_DOOR_10032
  0
3DFACE
  8
5642
 62
 45
 10
       -2.27697
 20
       -2.98455
 30
        5.01976
 11
       -2.27697
 21
       -2.98455
 31
        3.09220
 12
       -1.48678
 22
       -2.98455
 32
        3.09220
 13
       -1.48678
 23
       -2.98455
 33
        5.01976
999
5642:5642_PARTITION_10_0_10035
  0
3DFACE
  8
5642
 62
 43
 10
       -1.13080
 20
       -2.98455
 30
        5.80000
 11
       -1.13080
 21
       -2.98455
 31
        2.80000
 12
        2.86920
 22
       -2.98455
 32
        2.80000
 13
        2.86920
 23
       -2.98455
 33
        5.80000
999
5642:5642_PARTITION_10_0_0_0_0_0_DOOR_10037
  0
3DFACE
  8
5642
 62
 45
 10
       -0.98544
 20
       -2.98455
 30
        5.03622
 11
       -0.98544
 21
       -2.98455
 31
        3.09220
 12
       -0.17717
 22
       -2.98455
 32
        3.09220
 13
       -0.17717
 23
       -2.98455
 33
        5.03622
999
5642:5642_PARTITION_4_0_10038
  0
3DFACE
  8
5642
 62
 43
 10
       -1.13080
 20
        6.01545
 30
        5.80000
 11
       -1.13080
 21
        6.01545
 31
        2.80000
 12
       -1.13080
 22
        2.07795
 32
        2.80000
 13
       -1.13080
 23
        2.07795
 33
        5.80000
999
5642:5642_PARTITION_4_0_0_0_0_0_HOLE_10040
  0
3DFACE
  8
5642
 62
143
 10
       -1.13080
 20
        5.78245
 30
        5.79700
 11
       -1.13080
 21
        5.78245
 31
        3.09520
 12
       -1.13080
 22
        2.18846
 32
        3.09520
 13
       -1.13080
 23
        2.18846
 33
        5.79700
999
5642:5642_PARTITION_5_0_10041
  0
3DFACE
  8
5642
 62
 43
 10
       -1.13080
 20
        2.07795
 30
        5.80000
 11
       -1.13080
 21
        2.07795
 31
        2.80000
 12
       -1.75086
 22
        2.07409
 32
        2.80000
 13
       -1.75086
 23
        2.07409
 33
        5.80000
999
5642:5642_WALL_2_0_0
  0
3DFACE
  8
5642
 62
 43
 10
        2.86920
 20
       -2.98455
 30
        5.80000
 11
        2.86920
 21
       -2.98455
 31
        2.80000
 12
        2.86920
 22
        6.01545
 32
        2.80000
 13
        2.86920
 23
        6.01545
 33
        5.80000
999
5642:5642_WALL_3_0_0
  0
3DFACE
  8
5642
 62
 43
 10
        2.86920
 20
        6.01545
 30
        5.80000
 11
        2.86920
 21
        6.01545
 31
        2.80000
 12
       -1.13080
 22
        6.01545
 32
        2.80000
 13
       -1.13080
 23
        6.01545
 33
        5.80000
999
5642:5642_WALL_3_0_0_0_0_0_WIN
  0
3DFACE
  8
5642
 62
143
 10
        1.53574
 20
        5.88545
 30
        5.26500
 11
        1.53574
 21
        5.88545
 31
        3.83500
 12
        1.15574
 22
        5.88545
 32
        3.83500
 13
        1.15574
 23
        5.88545
 33
        5.26500
999
5642:5642_WALL_3_0_0_1_0_1_WIN
  0
3DFACE
  8
5642
 62
143
 10
        1.04574
 20
        5.88545
 30
        5.26500
 11
        1.04574
 21
        5.88545
 31
        3.83500
 12
        0.66831
 22
        5.88545
 32
        3.83500
 13
        0.66831
 23
        5.88545
 33
        5.26500
999
5642:5642_WALL_3_0_0_2_0_2_WIN
  0
3DFACE
  8
5642
 62
143
 10
        0.55831
 20
        5.88545
 30
        5.26500
 11
        0.55831
 21
        5.88545
 31
        3.83500
 12
        0.17423
 22
        5.88545
 32
        3.83500
 13
        0.17423
 23
        5.88545
 33
        5.26500
999
5642:5642_PARTITION_6_0_0
  0
3DFACE
  8
5642
 62
 43
 10
       -1.75086
 20
        2.07409
 30
        5.80000
 11
       -1.75086
 21
        2.07409
 31
        2.80000
 12
       -1.75086
 22
       -1.47621
 32
        2.80000
 13
       -1.75086
 23
       -1.47621
 33
        5.80000
999
5642:5642_PARTITION_7_0_0
  0
3DFACE
  8
5642
 62
 43
 10
       -1.75086
 20
       -1.47621
 30
        5.80000
 11
       -1.75086
 21
       -1.47621
 31
        2.80000
 12
       -2.43080
 22
       -1.48455
 32
        2.80000
 13
       -2.43080
 23
       -1.48455
 33
        5.80000
999
5642:5642_PARTITION_8_0_0
  0
3DFACE
  8
5642
 62
 43
 10
       -2.43080
 20
       -1.48455
 30
        5.80000
 11
       -2.43080
 21
       -1.48455
 31
        2.80000
 12
       -2.43080
 22
       -2.98455
 32
        2.80000
 13
       -2.43080
 23
       -2.98455
 33
        5.80000
999
5642:5642_PARTITION_8_0_0_0_0_0_DOOR
  0
3DFACE
  8
5642
 62
 45
 10
       -2.43080
 20
       -2.03853
 30
        5.06876
 11
       -2.43080
 21
       -2.03853
 31
        3.20300
 12
       -2.43080
 22
       -2.83485
 32
        3.20300
 13
       -2.43080
 23
       -2.83485
 33
        5.06876
999
5642:5642_FLOOR_0_0_0
  0
3DFACE
  8
5642
 62
  8
 10
       -1.75086
 20
       -1.47621
 30
        2.80000
 11
       -1.75086
 21
       -2.98455
 31
        2.80000
 12
       -2.43080
 22
       -2.98455
 32
        2.80000
 13
       -2.43080
 23
       -1.48455
 33
        2.80000
999
5642:5642_FLOOR_0_0_1
  0
3DFACE
  8
5642
 62
  8
 10
       -1.13080
 20
        2.07795
 30
        2.80000
 11
       -1.13080
 21
       -2.98455
 31
        2.80000
 12
       -1.75086
 22
       -2.98455
 32
        2.80000
 13
       -1.75086
 23
        2.07409
 33
        2.80000
999
5642:5642_FLOOR_0_0_2
  0
3DFACE
  8
5642
 62
  8
 10
        2.86920
 20
        6.01545
 30
        2.80000
 11
        2.86920
 21
       -2.98455
 31
        2.80000
 12
       -1.13080
 22
       -2.98455
 32
        2.80000
 13
       -1.13080
 23
        6.01545
 33
        2.80000
999
5642:5642_CEILING_1_0_10021
  0
3DFACE
  8
5642
 62
 15
 10
       -2.43080
 20
       -1.48455
 30
        5.80000
 11
       -2.43080
 21
       -2.98455
 31
        5.80000
 12
       -1.75086
 22
       -2.98455
 32
        5.80000
 13
       -1.75086
 23
       -1.47621
 33
        5.80000
999
5642:5642_CEILING_1_0_10022
  0
3DFACE
  8
5642
 62
 15
 10
       -1.75086
 20
        2.07409
 30
        5.80000
 11
       -1.75086
 21
       -2.98455
 31
        5.80000
 12
       -1.13080
 22
       -2.98455
 32
        5.80000
 13
       -1.13080
 23
        2.07795
 33
        5.80000
999
5642:5642_CEILING_1_0_10023
  0
3DFACE
  8
5642
 62
 15
 10
       -1.13080
 20
        6.01545
 30
        5.80000
 11
       -1.13080
 21
       -2.98455
 31
        5.80000
 12
        2.86920
 22
       -2.98455
 32
        5.80000
 13
        2.86920
 23
        6.01545
 33
        5.80000
999
5654:5654_PARTITION_5_0_10033
  0
3DFACE
  8
5654
 62
 43
 10
       -5.13080
 20
       -2.98455
 30
        5.80000
 11
       -5.13080
 21
       -2.98455
 31
        2.80000
 12
       -3.73080
 22
       -2.98455
 32
        2.80000
 13
       -3.73080
 23
       -2.98455
 33
        5.80000
999
5654:5654_PARTITION_2_0_0
  0
3DFACE
  8
5654
 62
 43
 10
       -3.73080
 20
       -2.98455
 30
        5.80000
 11
       -3.73080
 21
       -2.98455
 31
        2.80000
 12
       -3.73080
 22
       -1.49621
 32
        2.80000
 13
       -3.73080
 23
       -1.49621
 33
        5.80000
999
5654:5654_PARTITION_3_0_0
  0
3DFACE
  8
5654
 62
 43
 10
       -3.73080
 20
       -1.49621
 30
        5.80000
 11
       -3.73080
 21
       -1.49621
 31
        2.80000
 12
       -5.13080
 22
       -1.49621
 32
        2.80000
 13
       -5.13080
 23
       -1.49621
 33
        5.80000
999
5654:5654_WALL_4_0_0
  0
3DFACE
  8
5654
 62
 43
 10
       -5.13080
 20
       -1.49621
 30
        5.80000
 11
       -5.13080
 21
       -1.49621
 31
        2.80000
 12
       -5.13080
 22
       -2.98455
 32
        2.80000
 13
       -5.13080
 23
       -2.98455
 33
        5.80000
999
5654:5654_FLOOR_0_0_0
  0
3DFACE
  8
5654
 62
  8
 10
       -3.73080
 20
       -1.49621
 30
        2.80000
 11
       -3.73080
 21
       -2.98455
 31
        2.80000
 12
       -5.13080
 22
       -2.98455
 32
        2.80000
 13
       -5.13080
 23
       -1.49621
 33
        2.80000
999
5654:5654_CEILING_1_0_10013
  0
3DFACE
  8
5654
 62
 15
 10
       -5.13080
 20
       -1.49621
 30
        5.80000
 11
       -5.13080
 21
       -2.98455
 31
        5.80000
 12
       -3.73080
 22
       -2.98455
 32
        5.80000
 13
       -3.73080
 23
       -1.49621
 33
        5.80000
999
5661:5661_PARTITION_5_0_10032
  0
3DFACE
  8
5661
 62
 43
 10
       -3.73080
 20
       -2.98455
 30
        5.80000
 11
       -3.73080
 21
       -2.98455
 31
        2.80000
 12
       -2.43080
 22
       -2.98455
 32
        2.80000
 13
       -2.43080
 23
       -2.98455
 33
        5.80000
999
5661:5661_PARTITION_2_0_10047
  0
3DFACE
  8
5661
 62
 43
 10
       -2.43080
 20
       -2.98455
 30
        5.80000
 11
       -2.43080
 21
       -2.98455
 31
        2.80000
 12
       -2.43080
 22
       -1.48455
 32
        2.80000
 13
       -2.43080
 23
       -1.48455
 33
        5.80000
999
5661:5661_PARTITION_2_0_0_0_0_0_DOOR_10049
  0
3DFACE
  8
5661
 62
 45
 10
       -2.43080
 20
       -2.83485
 30
        5.06876
 11
       -2.43080
 21
       -2.83485
 31
        3.20300
 12
       -2.43080
 22
       -2.03853
 32
        3.20300
 13
       -2.43080
 23
       -2.03853
 33
        5.06876
999
5661:5661_PARTITION_4_0_10050
  0
3DFACE
  8
5661
 62
 43
 10
       -3.73080
 20
       -1.49621
 30
        5.80000
 11
       -3.73080
 21
       -1.49621
 31
        2.80000
 12
       -3.73080
 22
       -2.98455
 32
        2.80000
 13
       -3.73080
 23
       -2.98455
 33
        5.80000
999
5661:5661_PARTITION_3_0_0
  0
3DFACE
  8
5661
 62
 43
 10
       -2.43080
 20
       -1.48455
 30
        5.80000
 11
       -2.43080
 21
       -1.48455
 31
        2.80000
 12
       -3.73080
 22
       -1.49621
 32
        2.80000
 13
       -3.73080
 23
       -1.49621
 33
        5.80000
999
5661:5661_FLOOR_0_0_0
  0
3DFACE
  8
5661
 62
  8
 10
       -2.43080
 20
       -1.48455
 30
        2.80000
 11
       -2.43080
 21
       -2.98455
 31
        2.80000
 12
       -3.73080
 22
       -2.98455
 32
        2.80000
 13
       -3.73079
 23
       -1.49621
 33
        2.80000
999
5661:5661_CEILING_1_0_10011
  0
3DFACE
  8
5661
 62
 15
 10
       -3.73080
 20
       -1.49621
 30
        5.80000
 11
       -3.73080
 21
       -2.98455
 31
        5.80000
 12
       -2.43080
 22
       -2.98455
 32
        5.80000
 13
       -2.43080
 23
       -1.48455
 33
        5.80000
999
5668:5668_PARTITION_3_0_10040
  0
3DFACE
  8
5668
 62
 43
 10
       -1.75086
 20
        2.07409
 30
        5.80000
 11
       -1.75086
 21
        2.07409
 31
        2.80000
 12
       -5.13080
 22
        2.05305
 32
        2.80000
 13
       -5.13080
 23
        2.05305
 33
        5.80000
999
5668:5668_PARTITION_2_0_10045
  0
3DFACE
  8
5668
 62
 43
 10
       -1.75086
 20
       -1.47621
 30
        5.80000
 11
       -1.75086
 21
       -1.47621
 31
        2.80000
 12
       -1.75086
 22
        2.07409
 32
        2.80000
 13
       -1.75086
 23
        2.07409
 33
        5.80000
999
5668:5668_PARTITION_7_0_10046
  0
3DFACE
  8
5668
 62
 43
 10
       -2.43080
 20
       -1.48455
 30
        5.80000
 11
       -2.43080
 21
       -1.48455
 31
        2.80000
 12
       -1.75086
 22
       -1.47621
 32
        2.80000
 13
       -1.75086
 23
       -1.47621
 33
        5.80000
999
5668:5668_PARTITION_5_0_10051
  0
3DFACE
  8
5668
 62
 43
 10
       -5.13080
 20
       -1.49621
 30
        5.80000
 11
       -5.13080
 21
       -1.49621
 31
        2.80000
 12
       -3.73080
 22
       -1.49621
 32
        2.80000
 13
       -3.73080
 23
       -1.49621
 33
        5.80000
999
5668:5668_PARTITION_6_0_10053
  0
3DFACE
  8
5668
 62
 43
 10
       -3.73080
 20
       -1.49621
 30
        5.80000
 11
       -3.73080
 21
       -1.49621
 31
        2.80000
 12
       -2.43080
 22
       -1.48455
 32
        2.80000
 13
       -2.43080
 23
       -1.48455
 33
        5.80000
999
5668:5668_WALL_4_0_0
  0
3DFACE
  8
5668
 62
 43
 10
       -5.13080
 20
        2.05305
 30
        5.80000
 11
       -5.13080
 21
        2.05305
 31
        2.80000
 12
       -5.13080
 22
       -1.49621
 32
        2.80000
 13
       -5.13080
 23
       -1.49621
 33
        5.80000
999
5668:5668_FLOOR_0_0_0
  0
3DFACE
  8
5668
 62
  8
 10
       -1.75086
 20
        2.07409
 30
        2.80000
 11
       -1.75087
 21
       -1.47621
 31
        2.80000
 12
       -3.73080
 22
       -1.49621
 32
        2.80000
 13
       -3.73080
 23
       -1.49621
 33
        2.80000
  0
3DFACE
  8
5668
 62
  8
 10
       -1.75086
 20
        2.07409
 30
        2.80000
 11
       -3.73080
 21
       -1.49621
 31
        2.80000
 12
       -5.13080
 22
       -1.49621
 32
        2.80000
 13
       -5.13080
 23
       -1.49621
 33
        2.80000
  0
3DFACE
  8
5668
 62
  8
 10
       -1.75086
 20
        2.07409
 30
        2.80000
 11
       -5.13080
 21
       -1.49621
 31
        2.80000
 12
       -5.13080
 22
        2.05305
 32
        2.80000
 13
       -5.13080
 23
        2.05305
 33
        2.80000
999
5668:5668_CEILING_1_0_10004
  0
3DFACE
  8
5668
 62
 15
 10
       -5.13080
 20
        2.05305
 30
        5.80000
 11
       -5.13080
 21
       -1.49621
 31
        5.80000
 12
       -3.73080
 22
       -1.49621
 32
        5.80000
 13
       -3.73080
 23
       -1.49621
 33
        5.80000
  0
3DFACE
  8
5668
 62
 15
 10
       -5.13080
 20
        2.05305
 30
        5.80000
 11
       -3.73080
 21
       -1.49621
 31
        5.80000
 12
       -1.75086
 22
       -1.47621
 32
        5.80000
 13
       -1.75086
 23
       -1.47621
 33
        5.80000
  0
3DFACE
  8
5668
 62
 15
 10
       -5.13080
 20
        2.05305
 30
        5.80000
 11
       -1.75086
 21
       -1.47621
 31
        5.80000
 12
       -1.75086
 22
        2.07409
 32
        5.80000
 13
       -1.75086
 23
        2.07409
 33
        5.80000
999
6114:6114_PARTITION_2_0_0
  0
3DFACE
  8
6114
 62
 43
 10
       -3.73080
 20
       -1.49621
 30
        2.80000
 11
       -3.73080
 21
       -1.49621
 31
        0.00000
 12
       -1.75086
 22
       -1.47621
 32
        0.00000
 13
       -1.75086
 23
       -1.47621
 33
        2.80000
999
6114:6114_PARTITION_3_0_0
  0
3DFACE
  8
6114
 62
 43
 10
       -1.75086
 20
       -1.47621
 30
        2.80000
 11
       -1.75086
 21
       -1.47621
 31
        0.00000
 12
       -1.75086
 22
        2.07409
 32
        0.00000
 13
       -1.75086
 23
        2.07409
 33
        2.80000
999
6114:6114_PARTITION_3_0_0_0_0_0_HOLE
  0
3DFACE
  8
6114
 62
143
 10
       -1.75086
 20
       -1.32810
 30
        2.79800
 11
       -1.75086
 21
       -1.32810
 31
        0.40500
 12
       -1.75086
 22
        1.92599
 32
        0.40500
 13
       -1.75086
 23
        1.92599
 33
        2.79800
999
6114:6114_PARTITION_4_0_0
  0
3DFACE
  8
6114
 62
 43
 10
       -1.75086
 20
        2.07409
 30
        2.80000
 11
       -1.75086
 21
        2.07409
 31
        0.00000
 12
       -5.13080
 22
        2.05305
 32
        0.00000
 13
       -5.13080
 23
        2.05305
 33
        2.80000
999
6114:6114_WALL_5_0_0
  0
3DFACE
  8
6114
 62
 43
 10
       -5.13080
 20
        2.05305
 30
        2.80000
 11
       -5.13080
 21
        2.05305
 31
        0.00000
 12
       -5.13080
 22
       -1.49621
 32
        0.00000
 13
       -5.13080
 23
       -1.49621
 33
        2.80000
999
6114:6114_PARTITION_6_0_0
  0
3DFACE
  8
6114
 62
 43
 10
       -5.13080
 20
       -1.49621
 30
        2.80000
 11
       -5.13080
 21
       -1.49621
 31
        0.00000
 12
       -3.73080
 22
       -1.49621
 32
        0.00000
 13
       -3.73080
 23
       -1.49621
 33
        2.80000
999
6114:6114_GROUNDFLOOR_0_0_0
  0
3DFACE
  8
6114
 62
  8
 10
       -1.75086
 20
        2.07409
 30
        0.00000
 11
       -1.75086
 21
       -1.47621
 31
        0.00000
 12
       -3.73080
 22
       -1.49621
 32
        0.00000
 13
       -3.73080
 23
       -1.49621
 33
        0.00000
  0
3DFACE
  8
6114
 62
  8
 10
       -1.75086
 20
        2.07409
 30
        0.00000
 11
       -3.73080
 21
       -1.49621
 31
        0.00000
 12
       -5.13080
 22
       -1.49621
 32
        0.00000
 13
       -5.13080
 23
       -1.49621
 33
        0.00000
  0
3DFACE
  8
6114
 62
  8
 10
       -1.75086
 20
        2.07409
 30
        0.00000
 11
       -5.13080
 21
       -1.49621
 31
        0.00000
 12
       -5.13080
 22
        2.05305
 32
        0.00000
 13
       -5.13080
 23
        2.05305
 33
        0.00000
999
6114:6114_CEILING_1_0_10054
  0
3DFACE
  8
6114
 62
 15
 10
       -5.13080
 20
        2.05305
 30
        2.80000
 11
       -5.13080
 21
       -1.49621
 31
        2.80000
 12
       -3.73080
 22
       -1.49621
 32
        2.80000
 13
       -3.73080
 23
       -1.49621
 33
        2.80000
  0
3DFACE
  8
6114
 62
 15
 10
       -5.13080
 20
        2.05305
 30
        2.80000
 11
       -3.73080
 21
       -1.49621
 31
        2.80000
 12
       -1.75087
 22
       -1.47621
 32
        2.80000
 13
       -1.75087
 23
       -1.47621
 33
        2.80000
  0
3DFACE
  8
6114
 62
 15
 10
       -5.13080
 20
        2.05305
 30
        2.80000
 11
       -1.75087
 21
       -1.47621
 31
        2.80000
 12
       -1.75086
 22
        2.07409
 32
        2.80000
 13
       -1.75086
 23
        2.07409
 33
        2.80000
999
6122:6122_PARTITION_7_0_10055
  0
3DFACE
  8
6122
 62
 43
 10
       -1.75086
 20
       -1.47621
 30
        2.80000
 11
       -1.75086
 21
       -1.47621
 31
        0.00000
 12
       -3.73080
 22
       -1.49621
 32
        0.00000
 13
       -3.73080
 23
       -1.49621
 33
        2.80000
999
6122:6122_PARTITION_6_0_10056
  0
3DFACE
  8
6122
 62
 43
 10
       -1.75086
 20
        2.07409
 30
        2.80000
 11
       -1.75086
 21
        2.07409
 31
        0.00000
 12
       -1.75086
 22
       -1.47621
 32
        0.00000
 13
       -1.75086
 23
       -1.47621
 33
        2.80000
999
6122:6122_PARTITION_6_0_0_0_0_0_HOLE_10058
  0
3DFACE
  8
6122
 62
143
 10
       -1.75086
 20
        1.92599
 30
        2.79800
 11
       -1.75086
 21
        1.92599
 31
        0.40500
 12
       -1.75086
 22
       -1.32810
 32
        0.40500
 13
       -1.75086
 23
       -1.32810
 33
        2.79800
999
6122:6122_PARTITION_5_0_10058
  0
3DFACE
  8
6122
 62
 43
 10
       -5.13080
 20
        2.05305
 30
        2.80000
 11
       -5.13080
 21
        2.05305
 31
        0.00000
 12
       -1.75086
 22
        2.07409
 32
        0.00000
 13
       -1.75086
 23
        2.07409
 33
        2.80000
999
6122:6122_PARTITION_8_0_10059
  0
3DFACE
  8
6122
 62
 43
 10
       -3.73080
 20
       -1.49621
 30
        2.80000
 11
       -3.73080
 21
       -1.49621
 31
        0.00000
 12
       -5.13080
 22
       -1.49621
 32
        0.00000
 13
       -5.13080
 23
       -1.49621
 33
        2.80000
999
6122:6122_WALL_2_0_0
  0
3DFACE
  8
6122
 62
 43
 10
        2.86920
 20
       -5.98455
 30
        2.80000
 11
        2.86920
 21
       -5.98455
 31
        0.00000
 12
        2.86920
 22
        6.01545
 32
        0.00000
 13
        2.86920
 23
        6.01545
 33
        2.80000
999
6122:6122_WALL_3_0_0
  0
3DFACE
  8
6122
 62
 43
 10
        2.86920
 20
        6.01545
 30
        2.80000
 11
        2.86920
 21
        6.01545
 31
        0.00000
 12
       -5.13080
 22
        6.01545
 32
        0.00000
 13
       -5.13080
 23
        6.01545
 33
        2.80000
999
6122:6122_WALL_3_0_0_0_0_0_DOOR
  0
3DFACE
  8
6122
 62
 45
 10
        2.47566
 20
        6.01545
 30
        2.25106
 11
        2.47566
 21
        6.01545
 31
        0.40300
 12
       -0.02759
 22
        6.01545
 32
        0.40300
 13
       -0.02759
 23
        6.01545
 33
        2.25106
999
6122:6122_WALL_3_0_0_1_0_1_DOOR
  0
3DFACE
  8
6122
 62
 45
 10
       -0.31262
 20
        6.01545
 30
        2.25106
 11
       -0.31262
 21
        6.01545
 31
        0.40300
 12
       -1.41662
 22
        6.01545
 32
        0.40300
 13
       -1.41662
 23
        6.01545
 33
        2.25106
999
6122:6122_WALL_4_0_0
  0
3DFACE
  8
6122
 62
 43
 10
       -5.13080
 20
        6.01545
 30
        2.80000
 11
       -5.13080
 21
        6.01545
 31
        0.00000
 12
       -5.13080
 22
        2.05305
 32
        0.00000
 13
       -5.13080
 23
        2.05305
 33
        2.80000
999
6122:6122_WALL_9_0_0
  0
3DFACE
  8
6122
 62
 43
 10
       -5.13080
 20
       -1.49621
 30
        2.80000
 11
       -5.13080
 21
       -1.49621
 31
        0.00000
 12
       -5.13080
 22
       -5.98455
 32
        0.00000
 13
       -5.13080
 23
       -5.98455
 33
        2.80000
999
6122:6122_WALL_10_0_0
  0
3DFACE
  8
6122
 62
 43
 10
       -5.13080
 20
       -5.98455
 30
        2.80000
 11
       -5.13080
 21
       -5.98455
 31
        0.00000
 12
        2.86920
 22
       -5.98455
 32
        0.00000
 13
        2.86920
 23
       -5.98455
 33
        2.80000
999
6122:6122_WALL_10_0_0_0_0_0_HOLE
  0
3DFACE
  8
6122
 62
143
 10
       -4.93280
 20
       -5.98455
 30
        2.79700
 11
       -4.93280
 21
       -5.98455
 31
        0.40600
 12
        2.67120
 22
       -5.98455
 32
        0.40600
 13
        2.67120
 23
       -5.98455
 33
        2.79700
999
6122:6122_GROUNDFLOOR_0_0_1
  0
3DFACE
  8
6122
 62
  8
 10
       -1.75086
 20
       -1.47621
 30
        0.00000
 11
       -1.75086
 21
       -5.98455
 31
        0.00000
 12
       -5.13080
 22
       -5.98455
 32
        0.00000
 13
       -5.13080
 23
       -1.51035
 33
        0.00000
999
6122:6122_GROUNDFLOOR_0_0_2
  0
3DFACE
  8
6122
 62
  8
 10
        2.86920
 20
        2.10286
 30
        0.00000
 11
        2.86920
 21
       -5.98455
 31
        0.00000
 12
       -1.75086
 22
       -5.98455
 32
        0.00000
 13
       -1.75086
 23
        2.07409
 33
        0.00000
999
6122:6122_GROUNDFLOOR_0_0_3
  0
3DFACE
  8
6122
 62
  8
 10
        2.86920
 20
        6.01545
 30
        0.00000
 11
        2.86920
 21
        2.10286
 31
        0.00000
 12
       -5.13080
 22
        2.05305
 32
        0.00000
 13
       -5.13080
 23
        6.01545
 33
        0.00000
999
6122:6122_CEILING_1_0_10028
  0
3DFACE
  8
6122
 62
 15
 10
       -5.13080
 20
       -2.98455
 30
        2.80000
 11
       -5.13080
 21
       -5.98455
 31
        2.80000
 12
       -1.13080
 22
       -5.98455
 32
        2.80000
 13
       -1.13080
 23
       -2.98455
 33
        2.80000
999
6122:6122_CEILING_1_0_10034
  0
3DFACE
  8
6122
 62
 15
 10
       -1.13080
 20
       -2.98455
 30
        2.80000
 11
       -1.13080
 21
       -5.98455
 31
        2.80000
 12
        2.86920
 22
       -5.98455
 32
        2.80000
 13
        2.86920
 23
       -2.98455
 33
        2.80000
999
6122:6122_CEILING_1_0_10037
  0
3DFACE
  8
6122
 62
 15
 10
       -5.13080
 20
        6.01545
 30
        2.80000
 11
       -5.13080
 21
        2.05305
 31
        2.80000
 12
       -1.13080
 22
        2.07795
 32
        2.80000
 13
       -1.13080
 23
        6.01545
 33
        2.80000
999
6122:6122_CEILING_1_0_10042
  0
3DFACE
  8
6122
 62
 15
 10
       -2.43080
 20
       -1.48455
 30
        2.80000
 11
       -2.43080
 21
       -2.98455
 31
        2.80000
 12
       -1.75086
 22
       -2.98455
 32
        2.80000
 13
       -1.75086
 23
       -1.47621
 33
        2.80000
999
6122:6122_CEILING_1_0_10043
  0
3DFACE
  8
6122
 62
 15
 10
       -1.75086
 20
        2.07409
 30
        2.80000
 11
       -1.75086
 21
       -2.98455
 31
        2.80000
 12
       -1.13080
 22
       -2.98455
 32
        2.80000
 13
       -1.13080
 23
        2.07795
 33
        2.80000
999
6122:6122_CEILING_1_0_10044
  0
3DFACE
  8
6122
 62
 15
 10
       -1.13080
 20
        6.01545
 30
        2.80000
 11
       -1.13080
 21
       -2.98455
 31
        2.80000
 12
        2.86920
 22
       -2.98455
 32
        2.80000
 13
        2.86920
 23
        6.01545
 33
        2.80000
999
6122:6122_CEILING_1_0_10049
  0
3DFACE
  8
6122
 62
 15
 10
       -5.13080
 20
       -1.49621
 30
        2.80000
 11
       -5.13080
 21
       -2.98455
 31
        2.80000
 12
       -3.73080
 22
       -2.98455
 32
        2.80000
 13
       -3.73080
 23
       -1.49621
 33
        2.80000
999
6122:6122_CEILING_1_0_10052
  0
3DFACE
  8
6122
 62
 15
 10
       -3.73079
 20
       -1.49621
 30
        2.80000
 11
       -3.73080
 21
       -2.98455
 31
        2.80000
 12
       -2.43080
 22
       -2.98455
 32
        2.80000
 13
       -2.43080
 23
       -1.48455
 33
        2.80000
  0
ENDSEC
  0
EOF
